<?xml version="1.0" encoding="UTF-8"?>

<!-- generated on 2024-04-30 16:37:07 by Eclipse SUMO netedit Version 1.19.0
<configuration xmlns:xsi="http://www.w3.org/2001/XMLSchema-instance" xsi:noNamespaceSchemaLocation="http://sumo.dlr.de/xsd/neteditConfiguration.xsd">

    <input>
        <sumo-net-file value="C:\Users\yanbing.wang\Documents\traffic\micro-simulation\simple\straight_3km.net.xml"/>
    </input>

    <output>
        <output-file value="C:\Users\yanbing.wang\Documents\traffic\micro-simulation\simple\straight_3km.net.xml"/>
    </output>

    <processing>
        <geometry.min-radius.fix.railways value="false"/>
        <geometry.max-grade.fix value="false"/>
        <offset.disable-normalization value="true"/>
        <lefthand value="0"/>
    </processing>

    <junctions>
        <no-internal-links value="true"/>
        <no-turnarounds value="true"/>
        <junctions.corner-detail value="5"/>
        <junctions.limit-turn-speed value="5.50"/>
        <rectangular-lane-cut value="0"/>
    </junctions>

    <pedestrian>
        <walkingareas value="0"/>
    </pedestrian>

</configuration>
-->

<net version="1.16" junctionCornerDetail="5" limitTurnSpeed="5.50" xmlns:xsi="http://www.w3.org/2001/XMLSchema-instance" xsi:noNamespaceSchemaLocation="http://sumo.dlr.de/xsd/net_file.xsd">

    <location netOffset="0.00,0.00" convBoundary="0.00,-0.24,2140.76,0.00" origBoundary="-10000000000.00,-10000000000.00,10000000000.00,10000000000.00" projParameter="!"/>

    <edge id="E0" from="J0" to="J1" priority="-1">
        <lane id="E0_0" index="0" speed="30.00" length="2054.87" shape="0.00,-1.60 1999.85,-1.60"/>
    </edge>
    <edge id="E1" from="J1" to="J2" priority="-1">
        <lane id="E1_0" index="0" speed="20.00" length="8.81" shape="2000.11,-1.60 2008.66,-1.83"/>
    </edge>
    <edge id="E2" from="J2" to="J3" priority="-1">
        <lane id="E2_0" index="0" speed="30.00" length="131.95" shape="2008.92,-1.84 2140.76,-1.84"/>
    </edge>

    <junction id="J0" type="dead_end" x="0.00" y="0.00" incLanes="" intLanes="" shape="-2.33,56.42 -2.33,53.22" customShape="1"/>
    <junction id="J1" type="priority" x="2000.00" y="0.00" incLanes="E0_0" intLanes="" shape="2000.15,-0.00 2000.07,-3.20 1999.85,-3.20 1999.85,0.00">
        <request index="0" response="0" foes="0"/>
    </junction>
    <junction id="J2" type="priority" x="2008.81" y="-0.24" incLanes="E1_0" intLanes="" shape="2008.92,-0.24 2008.92,-3.44 2008.62,-3.43 2008.70,-0.23">
        <request index="0" response="0" foes="0"/>
    </junction>
    <junction id="J3" type="dead_end" x="2140.76" y="-0.24" incLanes="E2_0" intLanes="" shape="2140.76,-3.44 2140.76,-0.24"/>

    <connection from="E0" to="E1" fromLane="0" toLane="0" dir="s" state="M"/>
    <connection from="E1" to="E2" fromLane="0" toLane="0" dir="s" state="M"/>

</net>
