<?xml version="1.0" encoding="UTF-8"?>

<!-- generated on 2024-05-01 14:06:27 by Eclipse SUMO netedit Version 1.10.0
<configuration xmlns:xsi="http://www.w3.org/2001/XMLSchema-instance" xsi:noNamespaceSchemaLocation="http://sumo.dlr.de/xsd/netconvertConfiguration.xsd">

    <input>
        <sumo-net-file value="D:\Eclipse\compiled_linkage\SUMO_automated_bulidng_example_2\Work_with_Yanbing\Chicago_DOT_Corridor\Chi_DOT_Corridor.net.xml"/>
    </input>

    <output>
        <output-file value="D:\Eclipse\compiled_linkage\SUMO_automated_bulidng_example_2\Work_with_Yanbing\Chicago_DOT_Corridor\Chi_DOT_Corridor.net.xml"/>
    </output>

    <processing>
        <geometry.min-radius.fix.railways value="false"/>
        <geometry.max-grade.fix value="false"/>
        <offset.disable-normalization value="true"/>
        <lefthand value="false"/>
    </processing>

    <junctions>
        <no-turnarounds value="true"/>
        <junctions.corner-detail value="5"/>
        <junctions.limit-turn-speed value="5.5"/>
        <rectangular-lane-cut value="false"/>
    </junctions>

    <pedestrian>
        <walkingareas value="false"/>
    </pedestrian>

    <report>
        <aggregate-warnings value="5"/>
    </report>

</configuration>
-->

<net version="1.9" junctionCornerDetail="5" limitTurnSpeed="5.50" xmlns:xsi="http://www.w3.org/2001/XMLSchema-instance" xsi:noNamespaceSchemaLocation="http://sumo.dlr.de/xsd/net_file.xsd">

    <location netOffset="-446704.39,-4634169.30" convBoundary="40.73,277.12,1574.18,1386.36" origBoundary="-87.675939,41.841510,-87.622355,41.886405" projParameter="+proj=utm +zone=16 +ellps=WGS84 +datum=WGS84 +units=m +no_defs"/>

    <type id="highway.bridleway" priority="1" numLanes="1" speed="2.78" allow="pedestrian" oneway="1" width="2.00"/>
    <type id="highway.bus_guideway" priority="1" numLanes="1" speed="27.78" allow="bus" oneway="1"/>
    <type id="highway.cycleway" priority="1" numLanes="1" speed="8.33" allow="bicycle" oneway="1" width="1.00"/>
    <type id="highway.footway" priority="1" numLanes="1" speed="2.78" allow="pedestrian" oneway="1" width="2.00"/>
    <type id="highway.ford" priority="1" numLanes="1" speed="2.78" allow="army" oneway="1"/>
    <type id="highway.living_street" priority="2" numLanes="1" speed="2.78" disallow="tram rail_urban rail rail_electric rail_fast ship" oneway="1"/>
    <type id="highway.motorway" priority="14" numLanes="2" speed="39.44" allow="private emergency authority army vip passenger hov taxi bus coach delivery truck trailer motorcycle evehicle custom1 custom2" oneway="1"/>
    <type id="highway.motorway_link" priority="9" numLanes="1" speed="22.22" allow="private emergency authority army vip passenger hov taxi bus coach delivery truck trailer motorcycle evehicle custom1 custom2" oneway="1"/>
    <type id="highway.path" priority="1" numLanes="1" speed="2.78" allow="pedestrian bicycle" oneway="1" width="2.00"/>
    <type id="highway.pedestrian" priority="1" numLanes="1" speed="2.78" allow="pedestrian" oneway="1" width="2.00"/>
    <type id="highway.primary" priority="12" numLanes="2" speed="27.78" disallow="tram rail_urban rail rail_electric rail_fast ship" oneway="1"/>
    <type id="highway.primary_link" priority="7" numLanes="1" speed="22.22" disallow="tram rail_urban rail rail_electric rail_fast ship" oneway="1"/>
    <type id="highway.raceway" priority="15" numLanes="2" speed="83.33" allow="vip" oneway="1"/>
    <type id="highway.residential" priority="3" numLanes="1" speed="13.89" disallow="tram rail_urban rail rail_electric rail_fast ship" oneway="1"/>
    <type id="highway.secondary" priority="11" numLanes="1" speed="27.78" disallow="tram rail_urban rail rail_electric rail_fast ship" oneway="1"/>
    <type id="highway.secondary_link" priority="6" numLanes="1" speed="22.22" disallow="tram rail_urban rail rail_electric rail_fast ship" oneway="1"/>
    <type id="highway.service" priority="1" numLanes="1" speed="5.56" allow="pedestrian delivery bicycle" oneway="1"/>
    <type id="highway.stairs" priority="1" numLanes="1" speed="1.39" allow="pedestrian" oneway="1" width="2.00"/>
    <type id="highway.step" priority="1" numLanes="1" speed="1.39" allow="pedestrian" oneway="1" width="2.00"/>
    <type id="highway.steps" priority="1" numLanes="1" speed="1.39" allow="pedestrian" oneway="1" width="2.00"/>
    <type id="highway.tertiary" priority="10" numLanes="1" speed="22.22" disallow="tram rail_urban rail rail_electric rail_fast ship" oneway="1"/>
    <type id="highway.tertiary_link" priority="5" numLanes="1" speed="22.22" disallow="tram rail_urban rail rail_electric rail_fast ship" oneway="1"/>
    <type id="highway.track" priority="1" numLanes="1" speed="5.56" allow="pedestrian motorcycle moped bicycle" oneway="1"/>
    <type id="highway.trunk" priority="13" numLanes="2" speed="27.78" disallow="pedestrian bicycle tram rail_urban rail rail_electric rail_fast ship" oneway="1"/>
    <type id="highway.trunk_link" priority="8" numLanes="1" speed="22.22" disallow="pedestrian bicycle tram rail_urban rail rail_electric rail_fast ship" oneway="1"/>
    <type id="highway.unclassified" priority="4" numLanes="1" speed="13.89" disallow="tram rail_urban rail rail_electric rail_fast ship" oneway="1"/>
    <type id="highway.unsurfaced" priority="1" numLanes="1" speed="8.33" disallow="tram rail_urban rail rail_electric rail_fast ship" oneway="1"/>
    <type id="railway.highspeed" priority="21" numLanes="1" speed="69.44" allow="rail_fast" oneway="1"/>
    <type id="railway.light_rail" priority="19" numLanes="1" speed="27.78" allow="rail_urban" oneway="1"/>
    <type id="railway.preserved" priority="16" numLanes="1" speed="27.78" allow="rail" oneway="1"/>
    <type id="railway.rail" priority="20" numLanes="1" speed="44.44" allow="rail" oneway="1"/>
    <type id="railway.subway" priority="18" numLanes="1" speed="27.78" allow="rail_urban" oneway="1"/>
    <type id="railway.tram" priority="17" numLanes="1" speed="13.89" allow="tram" oneway="1"/>

    <edge id=":10112297849_0" function="internal">
        <lane id=":10112297849_0_0" index="0" allow="pedestrian delivery bicycle" speed="3.65" length="4.67" shape="1434.08,277.11 1434.89,275.91 1435.69,275.52 1436.49,275.93 1437.28,277.13"/>
    </edge>
    <edge id=":10126454523_0" function="internal">
        <lane id=":10126454523_0_0" index="0" disallow="tram rail_urban rail rail_electric rail_fast ship" speed="13.41" length="0.10" shape="1231.17,1271.96 1231.17,1271.96"/>
        <lane id=":10126454523_0_1" index="1" disallow="tram rail_urban rail rail_electric rail_fast ship" speed="13.41" length="0.10" shape="1227.97,1271.94 1227.97,1271.94"/>
    </edge>
    <edge id=":10233743490_0" function="internal">
        <lane id=":10233743490_0_0" index="0" disallow="tram rail_urban rail rail_electric rail_fast ship" speed="13.89" length="0.29" shape="728.55,870.32 728.55,870.61"/>
    </edge>
    <edge id=":10233743490_1" function="internal">
        <lane id=":10233743490_1_0" index="0" disallow="tram rail_urban rail rail_electric rail_fast ship" speed="13.89" length="0.31" shape="725.35,870.58 725.35,870.28"/>
    </edge>
    <edge id=":10233743494_0" function="internal">
        <lane id=":10233743494_0_0" index="0" disallow="tram rail_urban rail rail_electric rail_fast ship" speed="13.89" length="0.29" shape="730.37,717.77 730.37,718.06"/>
    </edge>
    <edge id=":10233743494_1" function="internal">
        <lane id=":10233743494_1_0" index="0" disallow="tram rail_urban rail rail_electric rail_fast ship" speed="13.89" length="0.31" shape="727.17,718.03 727.17,717.73"/>
    </edge>
    <edge id=":10925013097_0" function="internal">
        <lane id=":10925013097_0_0" index="0" disallow="tram rail_urban rail rail_electric rail_fast ship" speed="3.65" length="4.67" shape="971.33,924.54 972.13,923.34 972.93,922.94 973.73,923.34 974.53,924.54"/>
    </edge>
    <edge id=":10943423755_0" function="internal">
        <lane id=":10943423755_0_0" index="0" allow="bus bicycle" speed="27.78" length="0.30" shape="737.36,1078.51 737.08,1078.51"/>
        <lane id=":10943423755_0_1" index="1" disallow="tram rail_urban rail rail_electric rail_fast ship" speed="27.78" length="0.30" shape="737.42,1075.31 737.11,1075.31"/>
    </edge>
    <edge id=":1105878987_0" function="internal">
        <lane id=":1105878987_0_0" index="0" disallow="pedestrian tram rail_urban rail rail_electric rail_fast ship" speed="22.22" length="0.27" shape="975.84,1102.22 975.84,1102.48"/>
    </edge>
    <edge id=":1105879188_0" function="internal">
        <lane id=":1105879188_0_0" index="0" allow="bus bicycle" speed="27.78" length="9.71" shape="958.71,1063.94 968.42,1064.04"/>
    </edge>
    <edge id=":1105879188_1" function="internal">
        <lane id=":1105879188_1_0" index="0" disallow="tram rail_urban rail rail_electric rail_fast ship" speed="6.77" length="3.91" shape="958.68,1067.14 960.82,1066.71 962.13,1065.58"/>
    </edge>
    <edge id=":1105879188_2" function="internal">
        <lane id=":1105879188_2_0" index="0" disallow="tram rail_urban rail rail_electric rail_fast ship" speed="27.78" length="9.70" shape="958.68,1067.14 968.39,1067.24"/>
        <lane id=":1105879188_2_1" index="1" disallow="tram rail_urban rail rail_electric rail_fast ship" speed="27.78" length="9.70" shape="958.65,1070.34 968.35,1070.44"/>
        <lane id=":1105879188_2_2" index="2" disallow="tram rail_urban rail rail_electric rail_fast ship" speed="27.78" length="9.70" shape="958.61,1073.54 968.32,1073.64"/>
    </edge>
    <edge id=":1105879188_8" function="internal">
        <lane id=":1105879188_8_0" index="0" disallow="tram rail_urban rail rail_electric rail_fast ship" speed="6.77" length="5.94" shape="962.13,1065.58 962.37,1065.37 963.31,1063.12 963.65,1059.95"/>
    </edge>
    <edge id=":1105879188_5" function="internal">
        <lane id=":1105879188_5_0" index="0" disallow="tram rail_urban rail rail_electric rail_fast ship" speed="22.22" length="15.26" shape="963.48,1075.21 963.65,1059.95"/>
    </edge>
    <edge id=":1105879188_6" function="internal">
        <lane id=":1105879188_6_0" index="0" disallow="tram rail_urban rail rail_electric rail_fast ship" speed="6.09" length="7.77" shape="963.48,1075.21 963.81,1073.10 964.72,1071.61 966.24,1070.72 968.35,1070.44"/>
        <lane id=":1105879188_6_1" index="1" disallow="tram rail_urban rail rail_electric rail_fast ship" speed="5.22" length="5.45" shape="963.48,1075.21 963.79,1074.50 964.70,1074.01 966.21,1073.72 968.32,1073.64"/>
    </edge>
    <edge id=":1105879277_0" function="internal">
        <lane id=":1105879277_0_0" index="0" allow="bus bicycle" speed="6.22" length="8.26" shape="979.92,1060.23 980.15,1062.66 980.99,1064.40 982.44,1065.46 984.50,1065.83"/>
        <lane id=":1105879277_0_1" index="1" disallow="tram rail_urban rail rail_electric rail_fast ship" speed="7.77" length="13.47" shape="976.72,1060.14 977.12,1063.99 978.54,1066.76 980.98,1068.44 984.46,1069.03"/>
    </edge>
    <edge id=":1105879277_2" function="internal">
        <lane id=":1105879277_2_0" index="0" disallow="tram rail_urban rail rail_electric rail_fast ship" speed="22.22" length="14.89" shape="973.53,1060.06 973.90,1064.74 974.93,1068.21 975.99,1071.23 976.48,1074.57"/>
    </edge>
    <edge id=":1105879277_3" function="internal">
        <lane id=":1105879277_3_0" index="0" allow="bus bicycle" speed="27.78" length="16.00" shape="968.59,1067.24 973.32,1067.05 976.54,1066.53 979.77,1066.02 984.50,1065.83"/>
        <lane id=":1105879277_3_1" index="1" disallow="tram rail_urban rail rail_electric rail_fast ship" speed="27.78" length="16.00" shape="968.55,1070.44 973.28,1070.25 976.51,1069.73 979.73,1069.22 984.46,1069.03"/>
        <lane id=":1105879277_3_2" index="2" disallow="tram rail_urban rail rail_electric rail_fast ship" speed="27.78" length="16.00" shape="968.52,1073.64 973.25,1073.45 976.47,1072.93 979.69,1072.42 984.42,1072.23"/>
    </edge>
    <edge id=":1105879277_6" function="internal">
        <lane id=":1105879277_6_0" index="0" disallow="tram rail_urban rail rail_electric rail_fast ship" speed="6.23" length="8.12" shape="968.52,1073.64 970.18,1073.65 972.88,1073.73 975.38,1074.00 976.48,1074.57"/>
    </edge>
    <edge id=":1105879560_0" function="internal">
        <lane id=":1105879560_0_0" index="0" allow="bus bicycle" speed="27.78" length="13.01" shape="970.61,1081.90 966.78,1081.61 964.18,1081.04 961.58,1080.47 957.75,1080.19"/>
        <lane id=":1105879560_0_1" index="1" disallow="tram rail_urban rail rail_electric rail_fast ship" speed="27.78" length="13.01" shape="970.64,1078.70 966.80,1078.41 964.20,1077.84 961.61,1077.27 957.77,1076.99"/>
    </edge>
    <edge id=":1105879560_2" function="internal">
        <lane id=":1105879560_2_0" index="0" disallow="tram rail_urban rail rail_electric rail_fast ship" speed="6.38" length="8.64" shape="970.64,1078.70 967.50,1078.47 965.25,1077.84 963.92,1076.82 963.48,1075.41"/>
    </edge>
    <edge id=":1105879560_3" function="internal">
        <lane id=":1105879560_3_0" index="0" allow="bus bicycle" speed="6.10" length="7.84" shape="961.74,1089.02 961.51,1086.57 960.76,1084.81 959.50,1083.75 957.72,1083.39"/>
        <lane id=":1105879560_3_1" index="1" disallow="tram rail_urban rail rail_electric rail_fast ship" speed="7.01" length="10.67" shape="961.74,1089.02 961.52,1085.17 960.79,1082.41 959.53,1080.75 957.75,1080.19"/>
    </edge>
    <edge id=":1105879560_5" function="internal">
        <lane id=":1105879560_5_0" index="0" disallow="tram rail_urban rail rail_electric rail_fast ship" speed="22.22" length="13.75" shape="964.94,1089.06 964.73,1084.73 964.22,1081.54 963.70,1078.69 963.48,1075.41"/>
    </edge>
    <edge id=":1105879609_0" function="internal">
        <lane id=":1105879609_0_0" index="0" disallow="tram rail_urban rail rail_electric rail_fast ship" speed="22.22" length="0.30" shape="961.60,1103.19 961.60,1102.91"/>
        <lane id=":1105879609_0_1" index="1" disallow="tram rail_urban rail rail_electric rail_fast ship" speed="22.22" length="0.30" shape="964.80,1103.25 964.80,1102.94"/>
    </edge>
    <edge id=":1105879625_0" function="internal">
        <lane id=":1105879625_0_0" index="0" disallow="pedestrian tram rail_urban rail rail_electric rail_fast ship" speed="7.15" length="11.02" shape="981.94,1082.02 979.52,1082.49 977.77,1083.98 976.68,1086.47 976.24,1089.99"/>
    </edge>
    <edge id=":1105879625_1" function="internal">
        <lane id=":1105879625_1_0" index="0" allow="bus bicycle" speed="27.78" length="11.68" shape="981.98,1078.82 978.62,1079.28 976.43,1080.35 974.23,1081.43 970.87,1081.90"/>
        <lane id=":1105879625_1_1" index="1" disallow="tram rail_urban rail rail_electric rail_fast ship" speed="27.78" length="11.68" shape="982.02,1075.62 978.66,1076.08 976.46,1077.15 974.26,1078.23 970.90,1078.70"/>
    </edge>
    <edge id=":1105879625_3" function="internal">
        <lane id=":1105879625_3_0" index="0" disallow="pedestrian tram rail_urban rail rail_electric rail_fast ship" speed="22.22" length="15.22" shape="976.49,1074.77 976.24,1089.99"/>
    </edge>
    <edge id=":1105879625_4" function="internal">
        <lane id=":1105879625_4_0" index="0" disallow="tram rail_urban rail rail_electric rail_fast ship" speed="6.06" length="7.74" shape="976.49,1074.77 976.14,1076.51 975.09,1077.74 973.35,1078.47 970.90,1078.70"/>
    </edge>
    <edge id=":11552234383_0" function="internal">
        <lane id=":11552234383_0_0" index="0" disallow="tram rail_urban rail rail_electric rail_fast ship" speed="18.05" length="0.31" shape="727.59,1051.03 727.59,1051.34"/>
    </edge>
    <edge id=":11552234383_1" function="internal">
        <lane id=":11552234383_1_0" index="0" disallow="tram rail_urban rail rail_electric rail_fast ship" speed="18.05" length="0.27" shape="724.39,1051.31 724.39,1051.04"/>
    </edge>
    <edge id=":11552234386_0" function="internal">
        <lane id=":11552234386_0_0" index="0" allow="bus bicycle" speed="27.78" length="0.29" shape="660.59,1060.24 660.79,1060.24"/>
        <lane id=":11552234386_0_1" index="1" disallow="tram rail_urban rail rail_electric rail_fast ship" speed="27.78" length="0.29" shape="660.51,1063.44 660.77,1063.44"/>
        <lane id=":11552234386_0_2" index="2" disallow="tram rail_urban rail rail_electric rail_fast ship" speed="27.78" length="0.29" shape="660.42,1066.64 660.74,1066.64"/>
        <lane id=":11552234386_0_3" index="3" disallow="tram rail_urban rail rail_electric rail_fast ship" speed="27.78" length="0.29" shape="660.33,1069.83 660.71,1069.84"/>
    </edge>
    <edge id=":11552234387_0" function="internal">
        <lane id=":11552234387_0_0" index="0" allow="bus bicycle" speed="27.78" length="0.10" shape="660.52,1077.40 660.61,1077.40"/>
        <lane id=":11552234387_0_1" index="1" disallow="tram rail_urban rail rail_electric rail_fast ship" speed="27.78" length="0.10" shape="660.58,1074.20 660.49,1074.20"/>
    </edge>
    <edge id=":11552234388_0" function="internal">
        <lane id=":11552234388_0_0" index="0" allow="bus bicycle" speed="27.78" length="0.30" shape="718.34,1078.31 718.04,1078.31"/>
        <lane id=":11552234388_0_1" index="1" disallow="tram rail_urban rail rail_electric rail_fast ship" speed="27.78" length="0.30" shape="718.38,1075.11 718.09,1075.11"/>
    </edge>
    <edge id=":11552234389_0" function="internal">
        <lane id=":11552234389_0_0" index="0" allow="bus bicycle" speed="27.78" length="0.30" shape="718.08,1060.71 718.38,1060.71"/>
        <lane id=":11552234389_0_1" index="1" disallow="tram rail_urban rail rail_electric rail_fast ship" speed="27.78" length="0.30" shape="718.05,1063.91 718.35,1063.91"/>
        <lane id=":11552234389_0_2" index="2" disallow="tram rail_urban rail rail_electric rail_fast ship" speed="27.78" length="0.30" shape="718.03,1067.11 718.32,1067.11"/>
        <lane id=":11552234389_0_3" index="3" disallow="tram rail_urban rail rail_electric rail_fast ship" speed="27.78" length="0.30" shape="718.00,1070.31 718.30,1070.31"/>
    </edge>
    <edge id=":11552234404_0" function="internal">
        <lane id=":11552234404_0_0" index="0" disallow="tram rail_urban rail rail_electric rail_fast ship" speed="22.22" length="0.30" shape="727.56,1054.47 727.56,1054.78"/>
    </edge>
    <edge id=":11552234404_1" function="internal">
        <lane id=":11552234404_1_0" index="0" disallow="tram rail_urban rail rail_electric rail_fast ship" speed="3.65" length="2.34" shape="727.56,1054.47 726.75,1055.67 725.95,1056.06"/>
    </edge>
    <edge id=":11552234404_4" function="internal">
        <lane id=":11552234404_4_0" index="0" disallow="tram rail_urban rail rail_electric rail_fast ship" speed="3.65" length="2.34" shape="725.95,1056.06 725.15,1055.65 724.36,1054.45"/>
    </edge>
    <edge id=":11552234404_2" function="internal">
        <lane id=":11552234404_2_0" index="0" disallow="tram rail_urban rail rail_electric rail_fast ship" speed="22.22" length="0.30" shape="724.36,1054.74 724.36,1054.45"/>
    </edge>
    <edge id=":11552234404_3" function="internal">
        <lane id=":11552234404_3_0" index="0" disallow="tram rail_urban rail rail_electric rail_fast ship" speed="3.65" length="2.34" shape="724.36,1054.74 725.17,1053.55 725.97,1053.16"/>
    </edge>
    <edge id=":11552234404_5" function="internal">
        <lane id=":11552234404_5_0" index="0" disallow="tram rail_urban rail rail_electric rail_fast ship" speed="3.65" length="2.34" shape="725.97,1053.16 726.77,1053.57 727.56,1054.78"/>
    </edge>
    <edge id=":1619646405_0" function="internal">
        <lane id=":1619646405_0_0" index="0" disallow="tram rail_urban rail rail_electric rail_fast ship" speed="27.78" length="0.10" shape="126.77,1116.69 126.77,1116.69"/>
        <lane id=":1619646405_0_1" index="1" disallow="tram rail_urban rail rail_electric rail_fast ship" speed="27.78" length="0.10" shape="123.57,1116.68 123.57,1116.68"/>
    </edge>
    <edge id=":1619646405_2" function="internal">
        <lane id=":1619646405_2_0" index="0" disallow="tram rail_urban rail rail_electric rail_fast ship" speed="3.65" length="2.34" shape="123.57,1116.68 122.77,1117.87 121.96,1118.27"/>
    </edge>
    <edge id=":1619646405_6" function="internal">
        <lane id=":1619646405_6_0" index="0" disallow="tram rail_urban rail rail_electric rail_fast ship" speed="3.65" length="2.34" shape="121.96,1118.27 121.17,1117.87 120.37,1116.66"/>
    </edge>
    <edge id=":1619646405_3" function="internal">
        <lane id=":1619646405_3_0" index="0" disallow="tram rail_urban rail rail_electric rail_fast ship" speed="27.78" length="0.10" shape="117.17,1116.65 117.17,1116.65"/>
        <lane id=":1619646405_3_1" index="1" disallow="tram rail_urban rail rail_electric rail_fast ship" speed="27.78" length="0.10" shape="120.37,1116.66 120.37,1116.66"/>
    </edge>
    <edge id=":1619646405_5" function="internal">
        <lane id=":1619646405_5_0" index="0" disallow="tram rail_urban rail rail_electric rail_fast ship" speed="3.65" length="2.34" shape="120.37,1116.66 121.17,1115.47 121.98,1115.07"/>
    </edge>
    <edge id=":1619646405_7" function="internal">
        <lane id=":1619646405_7_0" index="0" disallow="tram rail_urban rail rail_electric rail_fast ship" speed="3.65" length="2.34" shape="121.98,1115.07 122.77,1115.47 123.57,1116.68"/>
    </edge>
    <edge id=":1655457006_0" function="internal">
        <lane id=":1655457006_0_0" index="0" disallow="tram rail_urban rail rail_electric rail_fast ship" speed="6.37" length="8.50" shape="256.09,1077.72 253.80,1078.04 252.15,1079.02 251.14,1080.67 250.77,1082.97"/>
    </edge>
    <edge id=":1655457006_1" function="internal">
        <lane id=":1655457006_1_0" index="0" disallow="tram rail_urban rail rail_electric rail_fast ship" speed="27.78" length="21.81" shape="256.10,1074.52 234.30,1074.43"/>
        <lane id=":1655457006_1_1" index="1" disallow="tram rail_urban rail rail_electric rail_fast ship" speed="27.78" length="21.81" shape="256.11,1071.32 234.31,1071.23"/>
    </edge>
    <edge id=":1655457006_3" function="internal">
        <lane id=":1655457006_3_0" index="0" disallow="tram rail_urban rail rail_electric rail_fast ship" speed="7.30" length="11.63" shape="256.13,1068.12 253.90,1068.19 249.97,1068.27 246.24,1068.16 244.57,1067.67"/>
    </edge>
    <edge id=":1655457006_4" function="internal">
        <lane id=":1655457006_4_0" index="0" disallow="tram rail_urban rail rail_electric rail_fast ship" speed="27.78" length="15.23" shape="247.77,1067.68 247.57,1082.91"/>
    </edge>
    <edge id=":1655457006_5" function="internal">
        <lane id=":1655457006_5_0" index="0" disallow="tram rail_urban rail rail_electric rail_fast ship" speed="8.13" length="2.93" shape="247.77,1067.68 246.93,1069.25 245.88,1069.72"/>
    </edge>
    <edge id=":1655457006_6" function="internal">
        <lane id=":1655457006_6_0" index="0" disallow="tram rail_urban rail rail_electric rail_fast ship" speed="3.65" length="2.57" shape="247.77,1067.68 246.97,1068.88 246.17,1069.27 245.96,1069.17"/>
    </edge>
    <edge id=":1655457006_10" function="internal">
        <lane id=":1655457006_10_0" index="0" disallow="tram rail_urban rail rail_electric rail_fast ship" speed="8.13" length="11.76" shape="245.88,1069.72 244.40,1070.37 240.20,1071.03 234.31,1071.23"/>
    </edge>
    <edge id=":1655457006_11" function="internal">
        <lane id=":1655457006_11_0" index="0" disallow="tram rail_urban rail rail_electric rail_fast ship" speed="3.65" length="2.11" shape="245.96,1069.17 245.37,1068.87 244.57,1067.67"/>
    </edge>
    <edge id=":1655457006_7" function="internal">
        <lane id=":1655457006_7_0" index="0" disallow="tram rail_urban rail rail_electric rail_fast ship" speed="6.78" length="10.00" shape="237.97,1082.73 237.80,1079.11 237.13,1076.51 235.96,1074.96 234.30,1074.43"/>
    </edge>
    <edge id=":1655457006_8" function="internal">
        <lane id=":1655457006_8_0" index="0" disallow="tram rail_urban rail rail_electric rail_fast ship" speed="27.78" length="15.57" shape="241.17,1082.79 241.76,1077.86 242.92,1074.20 244.06,1071.05 244.57,1067.67"/>
    </edge>
    <edge id=":1655457006_9" function="internal">
        <lane id=":1655457006_9_0" index="0" disallow="tram rail_urban rail rail_electric rail_fast ship" speed="3.65" length="2.34" shape="244.37,1082.85 245.19,1081.67 246.00,1081.28"/>
    </edge>
    <edge id=":1655457006_12" function="internal">
        <lane id=":1655457006_12_0" index="0" disallow="tram rail_urban rail rail_electric rail_fast ship" speed="3.65" length="2.34" shape="246.00,1081.28 246.79,1081.70 247.57,1082.91"/>
    </edge>
    <edge id=":1655457007_0" function="internal">
        <lane id=":1655457007_0_0" index="0" disallow="tram rail_urban rail rail_electric rail_fast ship" speed="5.73" length="6.80" shape="130.78,1077.20 129.07,1077.45 127.84,1078.27 127.09,1079.67 126.82,1081.65"/>
    </edge>
    <edge id=":1655457007_1" function="internal">
        <lane id=":1655457007_1_0" index="0" disallow="tram rail_urban rail rail_electric rail_fast ship" speed="27.78" length="20.44" shape="130.85,1074.00 110.44,1073.76"/>
        <lane id=":1655457007_1_1" index="1" disallow="tram rail_urban rail rail_electric rail_fast ship" speed="27.78" length="20.44" shape="130.92,1070.80 110.45,1070.56"/>
    </edge>
    <edge id=":1655457007_3" function="internal">
        <lane id=":1655457007_3_0" index="0" disallow="tram rail_urban rail rail_electric rail_fast ship" speed="7.03" length="10.63" shape="130.99,1067.60 126.45,1067.43 123.21,1067.13 121.27,1066.71 120.63,1066.16"/>
    </edge>
    <edge id=":1655457007_4" function="internal">
        <lane id=":1655457007_4_0" index="0" disallow="tram rail_urban rail rail_electric rail_fast ship" speed="27.78" length="15.41" shape="123.83,1066.20 123.62,1081.60"/>
    </edge>
    <edge id=":1655457007_5" function="internal">
        <lane id=":1655457007_5_0" index="0" disallow="tram rail_urban rail rail_electric rail_fast ship" speed="8.25" length="3.40" shape="123.83,1066.20 122.97,1068.13 121.84,1068.75"/>
    </edge>
    <edge id=":1655457007_6" function="internal">
        <lane id=":1655457007_6_0" index="0" disallow="tram rail_urban rail rail_electric rail_fast ship" speed="3.65" length="2.56" shape="123.83,1066.20 123.01,1067.39 122.21,1067.78 122.01,1067.68"/>
    </edge>
    <edge id=":1655457007_10" function="internal">
        <lane id=":1655457007_10_0" index="0" disallow="tram rail_urban rail rail_electric rail_fast ship" speed="8.25" length="11.66" shape="121.84,1068.75 120.46,1069.50 116.29,1070.31 110.45,1070.56"/>
    </edge>
    <edge id=":1655457007_11" function="internal">
        <lane id=":1655457007_11_0" index="0" disallow="tram rail_urban rail rail_electric rail_fast ship" speed="3.65" length="2.11" shape="122.01,1067.68 121.41,1067.37 120.63,1066.16"/>
    </edge>
    <edge id=":1655457007_7" function="internal">
        <lane id=":1655457007_7_0" index="0" disallow="tram rail_urban rail rail_electric rail_fast ship" speed="6.59" length="9.38" shape="114.02,1081.46 113.84,1078.10 113.18,1075.70 112.05,1074.25 110.44,1073.76"/>
    </edge>
    <edge id=":1655457007_8" function="internal">
        <lane id=":1655457007_8_0" index="0" disallow="tram rail_urban rail rail_electric rail_fast ship" speed="27.78" length="15.79" shape="117.22,1081.51 117.79,1076.50 118.95,1072.76 120.09,1069.56 120.63,1066.16"/>
    </edge>
    <edge id=":1655457007_9" function="internal">
        <lane id=":1655457007_9_0" index="0" disallow="tram rail_urban rail rail_electric rail_fast ship" speed="3.65" length="2.34" shape="120.42,1081.56 121.24,1080.37 122.04,1079.98"/>
    </edge>
    <edge id=":1655457007_12" function="internal">
        <lane id=":1655457007_12_0" index="0" disallow="tram rail_urban rail rail_electric rail_fast ship" speed="3.65" length="2.34" shape="122.04,1079.98 122.84,1080.39 123.62,1081.60"/>
    </edge>
    <edge id=":1655457008_0" function="internal">
        <lane id=":1655457008_0_0" index="0" disallow="tram rail_urban rail rail_electric rail_fast ship" speed="6.50" length="9.03" shape="124.02,1052.73 124.33,1055.18 125.35,1056.95 127.09,1058.02 129.54,1058.40"/>
    </edge>
    <edge id=":1655457008_1" function="internal">
        <lane id=":1655457008_1_0" index="0" disallow="tram rail_urban rail rail_electric rail_fast ship" speed="20.84" length="13.27" shape="124.02,1052.73 123.83,1066.00"/>
    </edge>
    <edge id=":1655457008_2" function="internal">
        <lane id=":1655457008_2_0" index="0" disallow="tram rail_urban rail rail_electric rail_fast ship" speed="3.65" length="2.56" shape="124.02,1052.73 123.20,1053.91 122.39,1054.30 122.20,1054.20"/>
    </edge>
    <edge id=":1655457008_11" function="internal">
        <lane id=":1655457008_11_0" index="0" disallow="tram rail_urban rail rail_electric rail_fast ship" speed="3.65" length="2.12" shape="122.20,1054.20 121.60,1053.89 120.82,1052.68"/>
    </edge>
    <edge id=":1655457008_3" function="internal">
        <lane id=":1655457008_3_0" index="0" disallow="tram rail_urban rail rail_electric rail_fast ship" speed="6.52" length="9.05" shape="115.13,1058.21 117.59,1057.90 119.35,1056.87 120.43,1055.13 120.82,1052.68"/>
    </edge>
    <edge id=":1655457008_4" function="internal">
        <lane id=":1655457008_4_0" index="0" disallow="tram rail_urban rail rail_electric rail_fast ship" speed="27.78" length="14.40" shape="115.13,1058.21 129.54,1058.40"/>
        <lane id=":1655457008_4_1" index="1" disallow="tram rail_urban rail rail_electric rail_fast ship" speed="27.78" length="14.40" shape="115.09,1061.41 129.49,1061.60"/>
        <lane id=":1655457008_4_2" index="2" disallow="tram rail_urban rail rail_electric rail_fast ship" speed="27.78" length="14.40" shape="115.05,1064.61 129.45,1064.80"/>
    </edge>
    <edge id=":1655457008_7" function="internal">