<?xml version='1.0' encoding='UTF-8'?>
<routes xmlns:xsi="http://www.w3.org/2001/XMLSchema-instance" xsi:noNamespaceSchemaLocation="http://sumo.dlr.de/xsd/routes_file.xsd">
    
    
    <vType id="trial" carFollowModel="IDM" maxSpeed="31.6058" minGap="2.463" accel="1.61727920551323" decel="2.4861929097" tau="1.44307305" emergencyDecel="8.00" delta="4.00" laneChangeModel="LC2013" 
    lcStrategic="1.414" lcCooperative="0.9998" lcAssertive="0.545" lcSpeedGain="3.76" lcKeepRight="0.36" lcOvertakeRight="0.877" />
    <vType id="t_0" />
    <vType id="t_1" />
    
    <route id="r_0" edges="635078745 108162374 108162237 635078551 970086456 124809170 976873440#0 E0 976873440#1 277208909 277208914 1000071021 976315382" /> 
    <route id="r_1" edges="635078745 108162374 108162237 635078551 970086456 124809170 19440938 27925488" />  
    <route id="r_2" edges="19447013 635078551 970086456 124809170 19440938 27925488" />  
    <route id="r_3" edges="19447013 635078551 970086456 124809170 976873440#0 E0 976873440#1 277208909 277208914 1000071021 976315382" />  
    <route id="r_4" edges="782177974 782177973 19446904 E0 976873440#1 277208909 277208914 1000071021 976315382" />  

    
    <flow id="f_0" type="trial" begin="0.00" departLane="best" route="r_0" end="1800.00" vehsPerHour="3512.19512195121978948009" departSpeed="desired" />
	<flow id="f_6" type="trial" begin="0.00" departLane="best" route="r_1" end="1800.00" vehsPerHour="488" departSpeed="desired" />
	<flow id="f_12" type="trial" begin="0.00" departLane="best" route="r_2" end="1800.00" vehsPerHour="40" departSpeed="desired" />
	<flow id="f_18" type="trial" begin="0.00" departLane="best" route="r_3" end="1800.00" vehsPerHour="291" departSpeed="desired" />
	<flow id="f_24" type="trial" begin="0.00" departLane="best" route="r_4" end="1800.00" vehsPerHour="515" departSpeed="desired" />
    <flow id="f_1" type="trial" begin="1800.00" departLane="best" route="r_0" end="3600.00" vehsPerHour="5633.80281690140873251949" departSpeed="desired" />
	<flow id="f_7" type="trial" begin="1800.00" departLane="best" route="r_1" end="3600.00" vehsPerHour="784" departSpeed="desired" />
	<flow id="f_13" type="trial" begin="1800.00" departLane="best" route="r_2" end="3600.00" vehsPerHour="80" departSpeed="desired" />
	<flow id="f_19" type="trial" begin="1800.00" departLane="best" route="r_3" end="3600.00" vehsPerHour="575" departSpeed="desired" />
	<flow id="f_25" type="trial" begin="1800.00" departLane="best" route="r_4" end="3600.00" vehsPerHour="1019" departSpeed="desired" />
    <flow id="f_2" type="trial" begin="3600.00" departLane="best" route="r_0" end="5400.00" vehsPerHour="5042.01680672268958005589" departSpeed="desired" />
	<flow id="f_8" type="trial" begin="3600.00" departLane="best" route="r_1" end="5400.00" vehsPerHour="701" departSpeed="desired" />
	<flow id="f_14" type="trial" begin="3600.00" departLane="best" route="r_2" end="5400.00" vehsPerHour="90" departSpeed="desired" />
	<flow id="f_20" type="trial" begin="3600.00" departLane="best" route="r_3" end="5400.00" vehsPerHour="651" departSpeed="desired" />
	<flow id="f_26" type="trial" begin="3600.00" departLane="best" route="r_4" end="5400.00" vehsPerHour="1153" departSpeed="desired" />
    <flow id="f_3" type="trial" begin="5400.00" departLane="best" route="r_0" end="7200.00" vehsPerHour="4406.36474908200762001798" departSpeed="desired" />
	<flow id="f_9" type="trial" begin="5400.00" departLane="best" route="r_1" end="7200.00" vehsPerHour="614" departSpeed="desired" />
	<flow id="f_15" type="trial" begin="5400.00" departLane="best" route="r_2" end="7200.00" vehsPerHour="95" departSpeed="desired" />
	<flow id="f_21" type="trial" begin="5400.00" departLane="best" route="r_3" end="7200.00" vehsPerHour="686" departSpeed="desired" />
	<flow id="f_27" type="trial" begin="5400.00" departLane="best" route="r_4" end="7200.00" vehsPerHour="1215" departSpeed="desired" />
    <flow id="f_4" type="trial" begin="7200.00" departLane="best" route="r_0" end="9000.00" vehsPerHour="3947.3684210526312199363" departSpeed="desired" />
	<flow id="f_10" type="trial" begin="7200.00" departLane="best" route="r_1" end="9000.00" vehsPerHour="549" departSpeed="desired" />
	<flow id="f_16" type="trial" begin="7200.00" departLane="best" route="r_2" end="9000.00" vehsPerHour="75" departSpeed="desired" />
	<flow id="f_22" type="trial" begin="7200.00" departLane="best" route="r_3" end="9000.00" vehsPerHour="544" departSpeed="desired" />
	<flow id="f_28" type="trial" begin="7200.00" departLane="best" route="r_4" end="9000.00" vehsPerHour="963" departSpeed="desired" />
    <flow id="f_5" type="trial" begin="9000.00" departLane="best" route="r_0" end="10800.00" vehsPerHour="3960.39603960396016191225" departSpeed="desired" />
    <flow id="f_11" type="trial" begin="9000.00" departLane="best" route="r_1" end="10800.00" vehsPerHour="551" departSpeed="desired" />
    <flow id="f_17" type="trial" begin="9000.00" departLane="best" route="r_2" end="10800.00" vehsPerHour="93" departSpeed="desired" />
    <flow id="f_23" type="trial" begin="9000.00" departLane="best" route="r_3" end="10800.00" vehsPerHour="668" departSpeed="desired" />
    <flow id="f_29" type="trial" begin="9000.00" departLane="best" route="r_4" end="10800.00" vehsPerHour="1184" departSpeed="desired" />

</routes>