<?xml version="1.0" encoding="UTF-8"?>

<!-- generated on 2024-07-22 14:55:14 by Eclipse SUMO netedit Version 1.19.0
<configuration xmlns:xsi="http://www.w3.org/2001/XMLSchema-instance" xsi:noNamespaceSchemaLocation="http://sumo.dlr.de/xsd/neteditConfiguration.xsd">

    <input>
        <sumo-net-file value="C:\Users\yanbing.wang\Documents\traffic\sumo\I-24_Motion_new\I-24_Motion.net.xml"/>
    </input>

    <output>
        <output-file value="C:\Users\yanbing.wang\Documents\traffic\sumo\I-24_Motion_new\I-24_Motion.net.xml"/>
    </output>

    <processing>
        <geometry.min-radius.fix.railways value="false"/>
        <geometry.max-grade.fix value="false"/>
        <offset.disable-normalization value="true"/>
        <lefthand value="0"/>
    </processing>

    <junctions>
        <no-turnarounds value="true"/>
        <junctions.corner-detail value="5"/>
        <junctions.limit-turn-speed value="5.50"/>
        <rectangular-lane-cut value="0"/>
    </junctions>

    <pedestrian>
        <walkingareas value="0"/>
    </pedestrian>

</configuration>
-->

<net version="1.16" junctionCornerDetail="5" limitTurnSpeed="5.50" xmlns:xsi="http://www.w3.org/2001/XMLSchema-instance" xsi:noNamespaceSchemaLocation="http://sumo.dlr.de/xsd/net_file.xsd">

    <location netOffset="-523968.36,-3983551.26" convBoundary="1270.02,0.00,12301.25,12324.89" origBoundary="-86.733641,35.995744,-86.597598,36.132741" projParameter="+proj=utm +zone=16 +ellps=WGS84 +datum=WGS84 +units=m +no_defs"/>

    <type id="highway.motorway" priority="14" numLanes="2" speed="39.44" allow="private emergency authority army vip passenger hov taxi bus coach delivery truck trailer motorcycle evehicle custom1 custom2" oneway="1"/>
    <type id="highway.motorway_link" priority="9" numLanes="1" speed="22.22" allow="private emergency authority army vip passenger hov taxi bus coach delivery truck trailer motorcycle evehicle custom1 custom2" oneway="1"/>

    <edge id=":1387907644_0" function="internal">
        <lane id=":1387907644_0_0" index="0" allow="private emergency authority army vip passenger hov taxi bus coach delivery truck trailer motorcycle evehicle custom1 custom2" speed="31.29" length="0.10" shape="3359.73,9389.75 3359.73,9389.75"/>
        <lane id=":1387907644_0_1" index="1" allow="private emergency authority army vip passenger hov taxi bus coach delivery truck trailer motorcycle evehicle custom1 custom2" speed="31.29" length="0.10" shape="3356.89,9388.27 3356.89,9388.27"/>
        <lane id=":1387907644_0_2" index="2" allow="private emergency authority army vip passenger hov taxi bus coach delivery truck trailer motorcycle evehicle custom1 custom2" speed="31.29" length="0.10" shape="3354.05,9386.80 3354.05,9386.80"/>
        <lane id=":1387907644_0_3" index="3" allow="private emergency authority army vip passenger hov taxi bus coach delivery truck trailer motorcycle evehicle custom1 custom2" speed="31.29" length="0.10" shape="3351.21,9385.33 3351.21,9385.33"/>
        <lane id=":1387907644_0_4" index="4" allow="private emergency authority army vip passenger hov taxi bus coach delivery truck trailer motorcycle evehicle custom1 custom2" speed="31.29" length="0.10" shape="3348.37,9383.85 3348.37,9383.85"/>
    </edge>
    <edge id=":202177824_0" function="internal">
        <lane id=":202177824_0_0" index="0" allow="private emergency authority army vip passenger hov taxi bus coach delivery truck trailer motorcycle evehicle custom1 custom2" speed="26.75" length="17.17" shape="3221.21,9656.48 3219.56,9661.17 3219.51,9664.73 3219.59,9668.34 3218.33,9673.21"/>
        <lane id=":202177824_0_1" index="1" allow="private emergency authority army vip passenger hov taxi bus coach delivery truck trailer motorcycle evehicle custom1 custom2" speed="26.75" length="18.74" shape="3218.37,9655.01 3216.51,9660.12 3216.34,9663.98 3216.30,9667.91 3214.87,9673.22"/>
    </edge>
    <edge id=":202177824_2" function="internal">
        <lane id=":202177824_2_0" index="0" allow="private emergency authority army vip passenger hov taxi bus coach delivery truck trailer motorcycle evehicle custom1 custom2" speed="30.17" length="18.77" shape="3218.37,9655.01 3216.05,9660.05 3214.82,9663.66 3213.60,9667.29 3211.30,9672.34"/>
        <lane id=":202177824_2_1" index="1" allow="private emergency authority army vip passenger hov taxi bus coach delivery truck trailer motorcycle evehicle custom1 custom2" speed="30.17" length="18.77" shape="3215.53,9653.53 3213.21,9658.58 3211.98,9662.20 3210.76,9665.82 3208.46,9670.88"/>
        <lane id=":202177824_2_2" index="2" allow="private emergency authority army vip passenger hov taxi bus coach delivery truck trailer motorcycle evehicle custom1 custom2" speed="30.17" length="18.77" shape="3212.69,9652.06 3210.36,9657.11 3209.13,9660.73 3207.91,9664.36 3205.61,9669.42"/>
        <lane id=":202177824_2_3" index="3" allow="private emergency authority army vip passenger hov taxi bus coach delivery truck trailer motorcycle evehicle custom1 custom2" speed="30.17" length="18.77" shape="3209.85,9650.58 3207.52,9655.64 3206.29,9659.26 3205.07,9662.89 3202.76,9667.96"/>
    </edge>
    <edge id=":202232173_0" function="internal">
        <lane id=":202232173_0_0" index="0" allow="private emergency authority army vip passenger hov taxi bus coach delivery truck trailer motorcycle evehicle custom1 custom2" speed="25.66" length="25.01" shape="2945.10,10149.04 2941.94,10151.84 2938.48,10156.02 2934.47,10161.60 2929.62,10168.57"/>
    </edge>
    <edge id=":202232173_1" function="internal">
        <lane id=":202232173_1_0" index="0" allow="private emergency authority army vip passenger hov taxi bus coach delivery truck trailer motorcycle evehicle custom1 custom2" speed="29.07" length="27.88" shape="2942.78,10145.89 2927.00,10166.74"/>
        <lane id=":202232173_1_1" index="1" allow="private emergency authority army vip passenger hov taxi bus coach delivery truck trailer motorcycle evehicle custom1 custom2" speed="29.07" length="27.88" shape="2940.78,10143.09 2924.37,10164.90"/>
        <lane id=":202232173_1_2" index="2" allow="private emergency authority army vip passenger hov taxi bus coach delivery truck trailer motorcycle evehicle custom1 custom2" speed="29.07" length="27.88" shape="2938.79,10140.28 2921.75,10163.07"/>
        <lane id=":202232173_1_3" index="3" allow="private emergency authority army vip passenger hov taxi bus coach delivery truck trailer motorcycle evehicle custom1 custom2" speed="29.07" length="27.88" shape="2936.83,10137.52 2919.12,10161.24"/>
    </edge>
    <edge id=":202233199_0" function="internal">
        <lane id=":202233199_0_0" index="0" allow="private emergency authority army vip passenger hov taxi bus coach delivery truck trailer motorcycle evehicle custom1 custom2" speed="26.75" length="25.61" shape="3900.50,8322.14 3897.54,8325.33 3893.64,8329.39 3889.26,8334.86 3884.84,8342.26"/>
    </edge>
    <edge id=":202233199_1" function="internal">
        <lane id=":202233199_1_0" index="0" allow="private emergency authority army vip passenger hov taxi bus coach delivery truck trailer motorcycle evehicle custom1 custom2" speed="31.29" length="26.33" shape="3897.67,8320.22 3893.33,8326.56 3889.60,8330.40 3885.98,8334.30 3881.98,8340.82"/>
        <lane id=":202233199_1_1" index="1" allow="private emergency authority army vip passenger hov taxi bus coach delivery truck trailer motorcycle evehicle custom1 custom2" speed="31.29" length="26.33" shape="3894.88,8318.64 3890.53,8325.02 3886.78,8328.89 3883.14,8332.82 3879.12,8339.38"/>
        <lane id=":202233199_1_2" index="2" allow="private emergency authority army vip passenger hov taxi bus coach delivery truck trailer motorcycle evehicle custom1 custom2" speed="31.29" length="26.33" shape="3892.10,8317.06 3887.72,8323.48 3883.96,8327.38 3880.30,8331.34 3876.26,8337.95"/>
        <lane id=":202233199_1_3" index="3" allow="private emergency authority army vip passenger hov taxi bus coach delivery truck trailer motorcycle evehicle custom1 custom2" speed="31.29" length="26.33" shape="3889.32,8315.47 3884.91,8321.94 3881.13,8325.87 3877.47,8329.87 3873.40,8336.51"/>
        <lane id=":202233199_1_4" index="4" allow="private emergency authority army vip passenger hov taxi bus coach delivery truck trailer motorcycle evehicle custom1 custom2" speed="31.29" length="26.33" shape="3886.54,8313.89 3882.11,8320.40 3878.31,8324.37 3874.63,8328.39 3870.54,8335.08"/>
    </edge>
    <edge id=":202477567_0" function="internal">
        <lane id=":202477567_0_0" index="0" allow="private emergency authority army vip passenger hov taxi bus coach delivery truck trailer motorcycle evehicle custom1 custom2" speed="29.06" length="0.29" shape="1984.65,11610.75 1984.45,11611.03"/>
        <lane id=":202477567_0_1" index="1" allow="private emergency authority army vip passenger hov taxi bus coach delivery truck trailer motorcycle evehicle custom1 custom2" speed="29.06" length="0.29" shape="1982.03,11608.91 1981.85,11609.16"/>
        <lane id=":202477567_0_2" index="2" allow="private emergency authority army vip passenger hov taxi bus coach delivery truck trailer motorcycle evehicle custom1 custom2" speed="29.06" length="0.29" shape="1979.42,11607.07 1979.25,11607.30"/>
        <lane id=":202477567_0_3" index="3" allow="private emergency authority army vip passenger hov taxi bus coach delivery truck trailer motorcycle evehicle custom1 custom2" speed="29.06" length="0.29" shape="1976.80,11605.23 1976.65,11605.43"/>
    </edge>
    <edge id=":202477576_0" function="internal">
        <lane id=":202477576_0_0" index="0" allow="private emergency authority army vip passenger hov taxi bus coach delivery truck trailer motorcycle evehicle custom1 custom2" speed="26.82" length="0.30" shape="1668.30,11959.52 1668.11,11959.69"/>
        <lane id=":202477576_0_1" index="1" allow="private emergency authority army vip passenger hov taxi bus coach delivery truck trailer motorcycle evehicle custom1 custom2" speed="26.82" length="0.30" shape="1666.23,11957.08 1666.02,11957.27"/>
        <lane id=":202477576_0_2" index="2" allow="private emergency authority army vip passenger hov taxi bus coach delivery truck trailer motorcycle evehicle custom1 custom2" speed="26.82" length="0.30" shape="1664.16,11954.65 1663.92,11954.85"/>
        <lane id=":202477576_0_3" index="3" allow="private emergency authority army vip passenger hov taxi bus coach delivery truck trailer motorcycle evehicle custom1 custom2" speed="26.82" length="0.30" shape="1662.08,11952.21 1661.83,11952.43"/>
    </edge>
    <edge id=":2817385349_0" function="internal">
        <lane id=":2817385349_0_0" index="0" allow="private emergency authority army vip passenger hov taxi bus coach delivery truck trailer motorcycle evehicle custom1 custom2" speed="24.59" length="8.20" shape="1411.41,12176.77 1409.83,12178.56 1409.04,12180.04 1408.26,12181.53 1406.70,12183.34"/>
        <lane id=":2817385349_0_1" index="1" allow="private emergency authority army vip passenger hov taxi bus coach delivery truck trailer motorcycle evehicle custom1 custom2" speed="24.59" length="8.20" shape="1411.41,12176.77 1409.49,12178.20 1407.95,12178.87 1406.41,12179.56 1404.51,12181.01"/>
        <lane id=":2817385349_0_2" index="2" allow="private emergency authority army vip passenger hov taxi bus coach delivery truck trailer motorcycle evehicle custom1 custom2" speed="24.59" length="8.20" shape="1409.24,12174.41 1407.31,12175.85 1405.77,12176.53 1404.22,12177.22 1402.31,12178.68"/>
        <lane id=":2817385349_0_3" index="3" allow="private emergency authority army vip passenger hov taxi bus coach delivery truck trailer motorcycle evehicle custom1 custom2" speed="24.59" length="8.20" shape="1407.08,12172.06 1405.14,12173.50 1403.58,12174.19 1402.04,12174.89 1400.12,12176.35"/>
        <lane id=":2817385349_0_4" index="4" allow="private emergency authority army vip passenger hov taxi bus coach delivery truck trailer motorcycle evehicle custom1 custom2" speed="24.59" length="8.20" shape="1404.91,12169.70 1402.96,12171.15 1401.40,12171.85 1399.85,12172.55 1397.92,12174.02"/>
    </edge>
    <edge id=":306533638_0" function="internal">
        <lane id=":306533638_0_0" index="0" allow="private emergency authority army vip passenger hov taxi bus coach delivery truck trailer motorcycle evehicle custom1 custom2" speed="22.22" length="7.68" shape="3063.50,10061.06 3061.34,10061.65 3059.99,10062.45 3058.65,10063.34 3056.54,10064.17"/>
    </edge>
    <edge id=":306534163_0" function="internal">
        <lane id=":306534163_0_0" index="0" allow="private emergency authority army vip passenger hov taxi bus coach delivery truck trailer motorcycle evehicle custom1 custom2" speed="22.22" length="7.98" shape="3119.82,10058.81 3117.48,10059.21 3115.94,10059.84 3114.39,10060.41 3112.05,10060.66"/>
        <lane id=":306534163_0_1" index="1" allow="private emergency authority army vip passenger hov taxi bus coach delivery truck trailer motorcycle evehicle custom1 custom2" speed="22.22" length="7.98" shape="3119.82,10058.81 3117.50,10058.71 3115.94,10058.24 3114.38,10057.71 3112.06,10057.46"/>
    </edge>
    <edge id=":306534647_0" function="internal">
        <lane id=":306534647_0_0" index="0" allow="private emergency authority army vip passenger hov taxi bus coach delivery truck trailer motorcycle evehicle custom1 custom2" speed="31.29" length="0.74" shape="4047.73,8102.79 4047.12,8103.59"/>
        <lane id=":306534647_0_1" index="1" allow="private emergency authority army vip passenger hov taxi bus coach delivery truck trailer motorcycle evehicle custom1 custom2" speed="31.29" length="0.74" shape="4045.14,8100.91 4044.62,8101.60"/>
        <lane id=":306534647_0_2" index="2" allow="private emergency authority army vip passenger hov taxi bus coach delivery truck trailer motorcycle evehicle custom1 custom2" speed="31.29" length="0.74" shape="4042.56,8099.02 4042.11,8099.61"/>
        <lane id=":306534647_0_3" index="3" allow="private emergency authority army vip passenger hov taxi bus coach delivery truck trailer motorcycle evehicle custom1 custom2" speed="31.29" length="0.74" shape="4039.97,8097.14 4039.61,8097.62"/>
        <lane id=":306534647_0_4" index="4" allow="private emergency authority army vip passenger hov taxi bus coach delivery truck trailer motorcycle evehicle custom1 custom2" speed="31.29" length="0.74" shape="4037.39,8095.25 4037.10,8095.63"/>
    </edge>
    <edge id=":306534648_0" function="internal">
        <lane id=":306534648_0_0" index="0" allow="private emergency authority army vip passenger hov taxi bus coach delivery truck trailer motorcycle evehicle custom1 custom2" speed="31.29" length="0.41" shape="4011.68,8148.21 4011.63,8148.27"/>
        <lane id=":306534648_0_1" index="1" allow="private emergency authority army vip passenger hov taxi bus coach delivery truck trailer motorcycle evehicle custom1 custom2" speed="31.29" length="0.41" shape="4009.17,8146.22 4009.03,8146.42"/>
        <lane id=":306534648_0_2" index="2" allow="private emergency authority army vip passenger hov taxi bus coach delivery truck trailer motorcycle evehicle custom1 custom2" speed="31.29" length="0.41" shape="4006.67,8144.23 4006.42,8144.56"/>
        <lane id=":306534648_0_3" index="3" allow="private emergency authority army vip passenger hov taxi bus coach delivery truck trailer motorcycle evehicle custom1 custom2" speed="31.29" length="0.41" shape="4004.16,8142.24 4003.81,8142.70"/>
        <lane id=":306534648_0_4" index="4" allow="private emergency authority army vip passenger hov taxi bus coach delivery truck trailer motorcycle evehicle custom1 custom2" speed="31.29" length="0.41" shape="4001.66,8140.25 4001.21,8140.84"/>
    </edge>
    <edge id=":306664416_0" function="internal">
        <lane id=":306664416_0_0" index="0" allow="private emergency authority army vip passenger hov taxi bus coach delivery truck trailer motorcycle evehicle custom1 custom2" speed="29.06" length="0.30" shape="1959.86,11645.29 1959.66,11645.56"/>
        <lane id=":306664416_0_1" index="1" allow="private emergency authority army vip passenger hov taxi bus coach delivery truck trailer motorcycle evehicle custom1 custom2" speed="29.06" length="0.30" shape="1957.26,11643.42 1957.08,11643.67"/>
        <lane id=":306664416_0_2" index="2" allow="private emergency authority army vip passenger hov taxi bus coach delivery truck trailer motorcycle evehicle custom1 custom2" speed="29.06" length="0.30" shape="1954.66,11641.56 1954.49,11641.79"/>
        <lane id=":306664416_0_3" index="3" allow="private emergency authority army vip passenger hov taxi bus coach delivery truck trailer motorcycle evehicle custom1 custom2" speed="29.06" length="0.30" shape="1952.06,11639.69 1951.90,11639.90"/>
    </edge>
    <edge id=":6334643926_0" function="internal">
        <lane id=":6334643926_0_0" index="0" allow="private emergency authority army vip passenger hov taxi bus coach delivery truck trailer motorcycle evehicle custom1 custom2" speed="22.22" length="6.96" shape="3147.06,9945.77 3147.79,9947.65 3148.69,9948.75 3149.69,9949.83 3150.73,9951.60"/>
    </edge>
    <edge id=":8977092634_0" function="internal">
        <lane id=":8977092634_0_0" index="0" allow="private emergency authority army vip passenger hov taxi bus coach delivery truck trailer motorcycle evehicle custom1 custom2" speed="31.29" length="8.21" shape="3816.80,8470.71 3815.95,8472.96 3815.73,8474.64 3815.50,8476.32 3814.65,8478.58"/>
        <lane id=":8977092634_0_1" index="1" allow="private emergency authority army vip passenger hov taxi bus coach delivery truck trailer motorcycle evehicle custom1 custom2" speed="31.29" length="8.21" shape="3813.94,8469.27 3813.09,8471.53 3812.87,8473.21 3812.64,8474.89 3811.79,8477.14"/>
        <lane id=":8977092634_0_2" index="2" allow="private emergency authority army vip passenger hov taxi bus coach delivery truck trailer motorcycle evehicle custom1 custom2" speed="31.29" length="8.21" shape="3811.08,8467.84 3810.23,8470.09 3810.00,8471.77 3809.78,8473.45 3808.93,8475.71"/>
        <lane id=":8977092634_0_3" index="3" allow="private emergency authority army vip passenger hov taxi bus coach delivery truck trailer motorcycle evehicle custom1 custom2" speed="31.29" length="8.21" shape="3808.22,8466.40 3807.37,8468.66 3807.14,8470.34 3806.92,8472.02 3806.07,8474.27"/>
        <lane id=":8977092634_0_4" index="4" allow="private emergency authority army vip passenger hov taxi bus coach delivery truck trailer motorcycle evehicle custom1 custom2" speed="31.29" length="8.21" shape="3805.36,8464.97 3804.51,8467.22 3804.28,8468.90 3804.06,8470.58 3803.21,8472.83"/>
    </edge>
    <edge id=":J0_0" function="internal">
        <lane id=":J0_0_0" index="0" allow="private emergency authority army vip passenger hov taxi bus coach delivery truck trailer motorcycle evehicle custom1 custom2" speed="29.07" length="47.38" shape="2713.69,10504.81 2688.57,10545.14"/>
        <lane id=":J0_0_1" index="1" allow="private emergency authority army vip passenger hov taxi bus coach delivery truck trailer motorcycle evehicle custom1 custom2" speed="29.07" length="47.38" shape="2710.97,10503.13 2685.90,10543.38"/>
        <lane id=":J0_0_2" index="2" allow="private emergency authority army vip passenger hov taxi bus coach delivery truck trailer motorcycle evehicle custom1 custom2" speed="29.07" length="47.38" shape="2708.25,10501.45 2683.22,10541.62"/>
        <lane id=":J0_0_3" index="3" allow="private emergency authority army vip passenger hov taxi bus coach delivery truck trailer motorcycle evehicle custom1 custom2" speed="29.07" length="47.38" shape="2705.52,10499.77 2680.55,10539.86"/>
    </edge>

    <edge id="1000071021" from="202477576" to="2817385349" priority="14" type="highway.motorway" spreadType="center" shape="1665.08,11955.96 1647.96,11970.78 1617.93,11994.42 1559.17,12039.93 1510.87,12078.76 1405.22,12175.94">
        <lane id="1000071021_0" index="0" allow="private emergency authority army vip passenger hov taxi bus coach delivery truck trailer motorcycle evehicle custom1 custom2" speed="24.59" length="336.56" shape="1668.11,11959.69 1651.02,11974.48 1620.88,11998.20 1562.14,12043.70 1514.00,12082.40 1411.41,12176.77"/>
        <lane id="1000071021_1" index="1" allow="private emergency authority army vip passenger hov taxi bus coach delivery truck trailer motorcycle evehicle custom1 custom2" speed="24.59" length="336.56" shape="1666.02,11957.27 1648.98,11972.01 1618.91,11995.68 1560.16,12041.19 1511.91,12079.97 1409.24,12174.41"/>
        <lane id="1000071021_2" index="2" allow="private emergency authority army vip passenger hov taxi bus coach delivery truck trailer motorcycle evehicle custom1 custom2" speed="24.59" length="336.56" shape="1663.92,11954.85 1646.94,11969.55 1616.95,11993.16 1558.18,12038.67 1509.83,12077.55 1407.08,12172.06"/>
        <lane id="1000071021_3" index="3" allow="private emergency authority army vip passenger hov taxi bus coach delivery truck trailer motorcycle evehicle custom1 custom2" speed="24.59" length="336.56" shape="1661.83,11952.43 1644.90,11967.08 1614.98,11990.64 1556.20,12036.16 1507.74,12075.12 1404.91,12169.70"/>
        <param key="ref" value="I 24"/>
    </edge>
    <edge id="108162237" from="306534648" to="202233199" priority="14" type="highway.motorway" spreadType="center" shape="4006.54,8144.39 3942.63,8233.98 3923.31,8262.15 3861.63,8370.67">
        <lane id="108162237_0" index="0" allow="private emergency authority army vip passenger hov taxi bus coach delivery truck trailer motorcycle evehicle custom1 custom2" speed="31.29" length="207.16" shape="4011.63,8148.27 3947.87,8237.65 3928.74,8265.55 3897.67,8320.22"/>
        <lane id="108162237_1" index="1" allow="private emergency authority army vip passenger hov taxi bus coach delivery truck trailer motorcycle evehicle custom1 custom2" speed="31.29" length="207.16" shape="4009.03,8146.42 3945.25,8235.81 3926.03,8263.85 3894.88,8318.64"/>
        <lane id="108162237_2" index="2" allow="private emergency authority army vip passenger hov taxi bus coach delivery truck trailer motorcycle evehicle custom1 custom2" speed="31.29" length="207.16" shape="4006.42,8144.56 3942.63,8233.98 3923.31,8262.15 3892.10,8317.06"/>
        <lane id="108162237_3" index="3" allow="private emergency authority army vip passenger hov taxi bus coach delivery truck trailer motorcycle evehicle custom1 custom2" speed="31.29" length="207.16" shape="4003.81,8142.70 3940.01,8232.15 3920.59,8260.45 3889.32,8315.47"/>
        <lane id="108162237_4" index="4" allow="private emergency authority army vip passenger hov taxi bus coach delivery truck trailer motorcycle evehicle custom1 custom2" speed="31.29" length="207.16" shape="4001.21,8140.84 3937.39,8230.31 3917.88,8258.75 3886.54,8313.89"/>
        <param key="ref" value="I 24"/>
    </edge>
    <edge id="108162374" from="306534647" to="306534648" priority="14" type="highway.motorway" spreadType="center">
        <lane id="108162374_0" index="0" allow="private emergency authority army vip passenger hov taxi bus coach delivery truck trailer motorcycle evehicle custom1 custom2" speed="31.29" length="56.98" shape="4047.12,8103.59 4011.68,8148.21"/>
        <lane id="108162374_1" index="1" allow="private emergency authority army vip passenger hov taxi bus coach delivery truck trailer motorcycle evehicle custom1 custom2" speed="31.29" length="56.98" shape="4044.62,8101.60 4009.17,8146.22"/>
        <lane id="108162374_2" index="2" allow="private emergency authority army vip passenger hov taxi bus coach delivery truck trailer motorcycle evehicle custom1 custom2" speed="31.29" length="56.98" shape="4042.11,8099.61 4006.67,8144.23"/>
        <lane id="108162374_3" index="3" allow="private emergency authority army vip passenger hov taxi bus coach delivery truck trailer motorcycle evehicle custom1 custom2" speed="31.29" length="56.98" shape="4039.61,8097.62 4004.16,8142.24"/>
        <lane id="108162374_4" index="4" allow="private emergency authority army vip passenger hov taxi bus coach delivery truck trailer motorcycle evehicle custom1 custom2" speed="31.29" length="56.98" shape="4037.10,8095.63 4001.66,8140.25"/>
        <param key="ref" value="I 24"/>
    </edge>
    <edge id="124809170" from="1387907644" to="202177824" priority="14" type="highway.motorway" spreadType="center">
        <lane id="124809170_0" index="0" allow="private emergency authority army vip passenger hov taxi bus coach delivery truck trailer motorcycle evehicle custom1 custom2" speed="31.29" length="300.55" shape="3359.73,9389.75 3221.21,9656.48"/>
        <lane id="124809170_1" index="1" allow="private emergency authority army vip passenger hov taxi bus coach delivery truck trailer motorcycle evehicle custom1 custom2" speed="31.29" length="300.55" shape="3356.89,9388.27 3218.37,9655.01"/>
        <lane id="124809170_2" index="2" allow="private emergency authority army vip passenger hov taxi bus coach delivery truck trailer motorcycle evehicle custom1 custom2" speed="31.29" length="300.55" shape="3354.05,9386.80 3215.53,9653.53"/>
        <lane id="124809170_3" index="3" allow="private emergency authority army vip passenger hov taxi bus coach delivery truck trailer motorcycle evehicle custom1 custom2" speed="31.29" length="300.55" shape="3351.21,9385.33 3212.69,9652.06"/>
        <lane id="124809170_4" index="4" allow="private emergency authority army vip passenger hov taxi bus coach delivery truck trailer motorcycle evehicle custom1 custom2" speed="31.29" length="300.55" shape="3348.37,9383.85 3209.85,9650.58"/>
        <param key="ref" value="I 24"/>
    </edge>
    <edge id="19440938" from="202177824" to="6334643926" priority="9" type="highway.motorway_link" spreadType="center" shape="3217.38,9649.97 3217.77,9670.37 3202.73,9707.08 3194.68,9726.05 3189.89,9737.25 3185.37,9748.02 3180.80,9758.94 3176.21,9769.87 3171.46,9781.16 3167.39,9792.75 3163.82,9804.53 3160.91,9816.32 3159.01,9827.81 3157.35,9839.95 3153.86,9864.57 3150.51,9888.17 3148.79,9901.32 3147.29,9912.37 3146.36,9919.81 3146.15,9926.36 3146.18,9933.78 3147.12,9939.81 3148.03,9943.06 3149.41,9948.58">
        <lane id="19440938_0" index="0" allow="private emergency authority army vip passenger hov taxi bus coach delivery truck trailer motorcycle evehicle custom1 custom2" speed="22.22" length="284.10" shape="3218.33,9673.21 3204.21,9707.70 3196.15,9726.68 3191.36,9737.87 3186.85,9748.64 3182.28,9759.56 3177.68,9770.49 3172.95,9781.74 3168.91,9793.25 3165.36,9804.95 3162.48,9816.64 3160.59,9828.05 3158.93,9840.17 3155.44,9864.79 3152.10,9888.39 3150.38,9901.53 3148.88,9912.58 3147.96,9919.94 3147.75,9926.38 3147.78,9933.65 3148.69,9939.47 3149.58,9942.65 3150.16,9944.99"/>
        <lane id="19440938_1" index="1" allow="private emergency authority army vip passenger hov taxi bus coach delivery truck trailer motorcycle evehicle custom1 custom2" speed="22.22" length="284.10" shape="3214.87,9673.22 3201.25,9706.46 3193.21,9725.42 3188.42,9736.63 3183.89,9747.40 3179.32,9758.32 3174.74,9769.25 3169.97,9780.58 3165.87,9792.25 3162.28,9804.11 3159.34,9816.00 3157.43,9827.57 3155.77,9839.73 3152.28,9864.35 3148.92,9887.95 3147.20,9901.11 3145.70,9912.16 3144.76,9919.68 3144.55,9926.34 3144.58,9933.91 3145.55,9940.15 3146.48,9943.47 3147.06,9945.77"/>
    </edge>
    <edge id="19446904" from="306533638" to="202232173" priority="9" type="highway.motorway_link" spreadType="center" shape="3060.10,10063.20 3040.48,10068.53 3019.90,10079.42 2998.50,10094.89 2961.78,10137.69 2908.16,10174.16">
        <lane id="19446904_0" index="0" allow="private emergency authority army vip passenger hov taxi bus coach delivery truck trailer motorcycle evehicle custom1 custom2" speed="22.22" length="142.90" shape="3056.54,10064.17 3040.48,10068.53 3019.90,10079.42 2998.50,10094.89 2961.78,10137.69 2945.10,10149.04"/>
    </edge>
    <edge id="19447013" from="306534635" to="202233199" priority="9" type="highway.motorway_link" spreadType="center" shape="4224.31,8171.24 4177.98,8166.42 4131.14,8171.41 4106.93,8176.74 4094.21,8180.68 4077.56,8186.92 4060.16,8194.29 4039.27,8204.83 4021.32,8214.12 4006.32,8223.11 3994.64,8230.34 3985.80,8236.50 3972.91,8246.25 3961.61,8255.74 3951.32,8264.86 3939.61,8275.79 3930.82,8285.06 3921.03,8296.25 3911.44,8308.49 3861.63,8370.67">
        <lane id="19447013_0" index="0" allow="private emergency authority army vip passenger hov taxi bus coach delivery truck trailer motorcycle evehicle custom1 custom2" speed="22.22" length="375.45" shape="4224.31,8171.24 4177.98,8166.42 4131.14,8171.41 4106.93,8176.74 4094.21,8180.68 4077.56,8186.92 4060.16,8194.29 4039.27,8204.83 4021.32,8214.12 4006.32,8223.11 3994.64,8230.34 3985.80,8236.50 3972.91,8246.25 3961.61,8255.74 3951.32,8264.86 3939.61,8275.79 3930.82,8285.06 3921.03,8296.25 3911.44,8308.49 3900.50,8322.14"/>
    </edge>
    <edge id="277208909" from="202477567" to="306664416" priority="14" type="highway.motorway" spreadType="center">
        <lane id="277208909_0" index="0" allow="private emergency authority army vip passenger hov taxi bus coach delivery truck trailer motorcycle evehicle custom1 custom2" speed="29.06" length="42.18" shape="1984.45,11611.03 1959.86,11645.29"/>
        <lane id="277208909_1" index="1" allow="private emergency authority army vip passenger hov taxi bus coach delivery truck trailer motorcycle evehicle custom1 custom2" speed="29.06" length="42.18" shape="1981.85,11609.16 1957.26,11643.42"/>
        <lane id="277208909_2" index="2" allow="private emergency authority army vip passenger hov taxi bus coach delivery truck trailer motorcycle evehicle custom1 custom2" speed="29.06" length="42.18" shape="1979.25,11607.30 1954.66,11641.56"/>