<?xml version="1.0" encoding="UTF-8"?>

<!-- generated on 2024-04-24 13:34:37 by Eclipse SUMO netedit Version 1.19.0
<configuration xmlns:xsi="http://www.w3.org/2001/XMLSchema-instance" xsi:noNamespaceSchemaLocation="http://sumo.dlr.de/xsd/neteditConfiguration.xsd">

    <input>
        <sumocfg-file value="C:\Users\yanbing.wang\Documents\traffic\micro-simulation\ngsim-i-80\i80-simple.sumocfg"/>
        <route-files value="C:\Users\yanbing.wang\Documents\traffic\micro-simulation\ngsim-i-80\i80-simple.rou.xml"/>
        <sumo-net-file value="C:\Users\yanbing.wang\Documents\traffic\micro-simulation\ngsim-i-80\i80-simple.net.xml"/>
    </input>

    <output>
        <output-file value="C:\Users\yanbing.wang\Documents\traffic\micro-simulation\ngsim-i-80\i80-simple.net.xml"/>
    </output>

    <processing>
        <geometry.min-radius.fix.railways value="false"/>
        <geometry.max-grade.fix value="false"/>
        <offset.disable-normalization value="true"/>
        <lefthand value="0"/>
    </processing>

    <junctions>
        <no-turnarounds value="true"/>
        <junctions.corner-detail value="5"/>
        <junctions.limit-turn-speed value="5.50"/>
        <rectangular-lane-cut value="0"/>
    </junctions>

    <pedestrian>
        <walkingareas value="0"/>
    </pedestrian>

</configuration>
-->

<net version="1.16" junctionCornerDetail="5" limitTurnSpeed="5.50" xmlns:xsi="http://www.w3.org/2001/XMLSchema-instance" xsi:noNamespaceSchemaLocation="http://sumo.dlr.de/xsd/net_file.xsd">

    <location netOffset="0.00,0.00" convBoundary="0.00,-65.38,503.00,0.00" origBoundary="-10000000000.00,-10000000000.00,10000000000.00,10000000000.00" projParameter="!"/>

    <edge id=":J1_0" function="internal">
        <lane id=":J1_0_0" index="0" speed="30.00" length="4.72" shape="101.76,-11.20 105.54,-14.40"/>
        <lane id=":J1_0_1" index="1" speed="30.00" length="4.72" shape="101.76,-8.00 105.54,-11.20"/>
        <lane id=":J1_0_2" index="2" speed="30.00" length="4.72" shape="101.76,-4.80 105.54,-8.00"/>
        <lane id=":J1_0_3" index="3" speed="30.00" length="4.72" shape="101.76,-1.60 105.54,-4.80"/>
        <lane id=":J1_0_4" index="4" speed="30.00" length="4.72" shape="101.76,-1.60 105.54,-1.60"/>
    </edge>

    <edge id="E0" from="J0" to="J1" priority="1">
        <lane id="E0_0" index="0" speed="30.00" length="101.76" shape="-0.00,-11.20 101.76,-11.20"/>
        <lane id="E0_1" index="1" speed="30.00" length="101.76" shape="-0.00,-8.00 101.76,-8.00"/>
        <lane id="E0_2" index="2" speed="30.00" length="101.76" shape="-0.00,-4.80 101.76,-4.80"/>
        <lane id="E0_3" index="3" speed="30.00" length="101.76" shape="-0.00,-1.60 101.76,-1.60"/>
    </edge>
    <edge id="E1" from="J1" to="J2" priority="1">
        <lane id="E1_0" index="0" speed="30.00" length="397.46" acceleration="1" shape="105.54,-14.40 503.00,-14.40"/>
        <lane id="E1_1" index="1" speed="30.00" length="397.46" shape="105.54,-11.20 503.00,-11.20"/>
        <lane id="E1_2" index="2" speed="30.00" length="397.46" shape="105.54,-8.00 503.00,-8.00"/>
        <lane id="E1_3" index="3" speed="30.00" length="397.46" shape="105.54,-4.80 503.00,-4.80"/>
        <lane id="E1_4" index="4" speed="30.00" length="397.46" shape="105.54,-1.60 503.00,-1.60"/>
    </edge>
    <edge id="R0" from="J3" to="J1" priority="1">
        <lane id="R0_0" index="0" speed="13.89" length="112.13" shape="2.39,-66.80 101.97,-15.27"/>
    </edge>

    <junction id="J0" type="dead_end" x="0.00" y="0.00" incLanes="" intLanes="" shape="-0.00,0.00 -0.00,-12.80"/>
    <junction id="J1" type="priority" x="128.00" y="0.00" incLanes="R0_0 E0_0 E0_1 E0_2 E0_3" intLanes=":J1_0_0 :J1_0_1 :J1_0_2 :J1_0_3 :J1_0_4" shape="105.54,0.00 105.54,-16.00 104.45,-16.03 104.06,-16.09 103.69,-16.21 103.27,-16.41 102.71,-16.69 101.24,-13.85 102.20,-13.27 102.38,-13.06 102.37,-12.92 102.16,-12.83 101.76,-12.80 101.76,0.00">
        <request index="0" response="00000" foes="00000" cont="0"/>
        <request index="1" response="00000" foes="00000" cont="0"/>
        <request index="2" response="00000" foes="00000" cont="0"/>
        <request index="3" response="00000" foes="00000" cont="0"/>
        <request index="4" response="00000" foes="00000" cont="0"/>
    </junction>
    <junction id="J2" type="dead_end" x="503.00" y="0.00" incLanes="E1_0 E1_1 E1_2 E1_3 E1_4" intLanes="" shape="503.00,-16.00 503.00,0.00"/>
    <junction id="J3" type="dead_end" x="1.65" y="-65.38" incLanes="" intLanes="" shape="1.65,-65.38 3.12,-68.22"/>

    <connection from="E0" to="E1" fromLane="0" toLane="0" via=":J1_0_0" dir="s" state="M"/>
    <connection from="E0" to="E1" fromLane="1" toLane="1" via=":J1_0_1" dir="s" state="M"/>
    <connection from="E0" to="E1" fromLane="2" toLane="2" via=":J1_0_2" dir="s" state="M"/>
    <connection from="E0" to="E1" fromLane="3" toLane="3" via=":J1_0_3" dir="s" state="M"/>
    <connection from="E0" to="E1" fromLane="3" toLane="4" via=":J1_0_4" dir="s" state="M"/>
<!-- 
    <connection from="R0" to="E1" fromLane="0" toLane="0" via=":J1_0_0" dir="s" state="M"/>
    <connection from="R0" to="E1" fromLane="0" toLane="1" via=":J1_0_1" dir="s" state="M"/>
    <connection from="R0" to="E1" fromLane="0" toLane="2" via=":J1_0_2" dir="s" state="M"/>
    <connection from="R0" to="E1" fromLane="0" toLane="3" via=":J1_0_3" dir="s" state="M"/>
    <connection from="R0" to="E1" fromLane="0" toLane="4" via=":J1_0_4" dir="s" state="M"/> -->

    <connection from=":J1_0" to="E1" fromLane="0" toLane="0" dir="s" state="M"/>
    <connection from=":J1_0" to="E1" fromLane="1" toLane="1" dir="s" state="M"/>
    <connection from=":J1_0" to="E1" fromLane="2" toLane="2" dir="s" state="M"/>
    <connection from=":J1_0" to="E1" fromLane="3" toLane="3" dir="s" state="M"/>
    <connection from=":J1_0" to="E1" fromLane="4" toLane="4" dir="s" state="M"/>



    <!-- <connection from="R0" to="E0" fromLane="0" toLane="0" dir="s" state="M"/> -->
    <!-- <connection from="R0" to="E1" fromLane="0" toLane="0" dir="s" state="M"/> -->
    <!-- <connection from="R0" to="E1" fromLane="0" toLane="1" dir="s" state="M"/> -->




</net>
