<?xml version="1.0" encoding="UTF-8"?>

<!-- generated on 2024-04-24 13:34:37 by Eclipse SUMO sumo Version 1.19.0
-->

<configuration xmlns:xsi="http://www.w3.org/2001/XMLSchema-instance" xsi:noNamespaceSchemaLocation="http://sumo.dlr.de/xsd/sumoConfiguration.xsd">

    <input>
        <net-file value="i80-simple.net1.xml"/>
        <route-files value="i80-simple.rou.xml"/>
        <additional-files value="i80-simple.add.xml"/>
    </input>

</configuration>
