<?xml version="1.0" encoding="UTF-8"?>

<!-- generated on 2024-05-01 14:54:41 by Eclipse SUMO netedit Version 1.10.0
<configuration xmlns:xsi="http://www.w3.org/2001/XMLSchema-instance" xsi:noNamespaceSchemaLocation="http://sumo.dlr.de/xsd/netconvertConfiguration.xsd">

    <input>
        <sumo-net-file value="D:\Eclipse\compiled_linkage\SUMO_automated_bulidng_example_2\Work_with_Yanbing\I-24_Motion\XXX.net.xml"/>
    </input>

    <output>
        <output-file value="D:\Eclipse\compiled_linkage\SUMO_automated_bulidng_example_2\Work_with_Yanbing\I-24_Motion\XXX.net.xml"/>
    </output>

    <processing>
        <geometry.min-radius.fix.railways value="false"/>
        <geometry.max-grade.fix value="false"/>
        <offset.disable-normalization value="true"/>
        <lefthand value="false"/>
    </processing>

    <junctions>
        <no-turnarounds value="true"/>
        <junctions.corner-detail value="5"/>
        <junctions.limit-turn-speed value="5.5"/>
        <rectangular-lane-cut value="false"/>
    </junctions>

    <pedestrian>
        <walkingareas value="false"/>
    </pedestrian>

    <report>
        <aggregate-warnings value="5"/>
    </report>

</configuration>
-->

<net version="1.9" junctionCornerDetail="5" limitTurnSpeed="5.50" xmlns:xsi="http://www.w3.org/2001/XMLSchema-instance" xsi:noNamespaceSchemaLocation="http://sumo.dlr.de/xsd/net_file.xsd">

    <location netOffset="-528844.53,-3984035.96" convBoundary="918.54,792.45,6051.63,5682.45" origBoundary="-86.683370,36.000236,-86.180851,36.460436" projParameter="+proj=utm +zone=16 +ellps=WGS84 +datum=WGS84 +units=m +no_defs"/>

    <type id="highway.bridleway" priority="1" numLanes="1" speed="2.78" allow="pedestrian" oneway="1" width="2.00"/>
    <type id="highway.bus_guideway" priority="1" numLanes="1" speed="27.78" allow="bus" oneway="1"/>
    <type id="highway.cycleway" priority="1" numLanes="1" speed="8.33" allow="bicycle" oneway="1" width="1.00"/>
    <type id="highway.footway" priority="1" numLanes="1" speed="2.78" allow="pedestrian" oneway="1" width="2.00"/>
    <type id="highway.ford" priority="1" numLanes="1" speed="2.78" allow="army" oneway="1"/>
    <type id="highway.living_street" priority="2" numLanes="1" speed="2.78" disallow="tram rail_urban rail rail_electric rail_fast ship" oneway="1"/>
    <type id="highway.motorway" priority="14" numLanes="2" speed="39.44" allow="private emergency authority army vip passenger hov taxi bus coach delivery truck trailer motorcycle evehicle custom1 custom2" oneway="1"/>
    <type id="highway.motorway_link" priority="9" numLanes="1" speed="22.22" allow="private emergency authority army vip passenger hov taxi bus coach delivery truck trailer motorcycle evehicle custom1 custom2" oneway="1"/>
    <type id="highway.path" priority="1" numLanes="1" speed="2.78" allow="pedestrian bicycle" oneway="1" width="2.00"/>
    <type id="highway.pedestrian" priority="1" numLanes="1" speed="2.78" allow="pedestrian" oneway="1" width="2.00"/>
    <type id="highway.primary" priority="12" numLanes="2" speed="27.78" disallow="tram rail_urban rail rail_electric rail_fast ship" oneway="1"/>
    <type id="highway.primary_link" priority="7" numLanes="1" speed="22.22" disallow="tram rail_urban rail rail_electric rail_fast ship" oneway="1"/>
    <type id="highway.raceway" priority="15" numLanes="2" speed="83.33" allow="vip" oneway="1"/>
    <type id="highway.residential" priority="3" numLanes="1" speed="13.89" disallow="tram rail_urban rail rail_electric rail_fast ship" oneway="1"/>
    <type id="highway.secondary" priority="11" numLanes="1" speed="27.78" disallow="tram rail_urban rail rail_electric rail_fast ship" oneway="1"/>
    <type id="highway.secondary_link" priority="6" numLanes="1" speed="22.22" disallow="tram rail_urban rail rail_electric rail_fast ship" oneway="1"/>
    <type id="highway.service" priority="1" numLanes="1" speed="5.56" allow="pedestrian delivery bicycle" oneway="1"/>
    <type id="highway.stairs" priority="1" numLanes="1" speed="1.39" allow="pedestrian" oneway="1" width="2.00"/>
    <type id="highway.step" priority="1" numLanes="1" speed="1.39" allow="pedestrian" oneway="1" width="2.00"/>
    <type id="highway.steps" priority="1" numLanes="1" speed="1.39" allow="pedestrian" oneway="1" width="2.00"/>
    <type id="highway.tertiary" priority="10" numLanes="1" speed="22.22" disallow="tram rail_urban rail rail_electric rail_fast ship" oneway="1"/>
    <type id="highway.tertiary_link" priority="5" numLanes="1" speed="22.22" disallow="tram rail_urban rail rail_electric rail_fast ship" oneway="1"/>
    <type id="highway.track" priority="1" numLanes="1" speed="5.56" allow="pedestrian motorcycle moped bicycle" oneway="1"/>
    <type id="highway.trunk" priority="13" numLanes="2" speed="27.78" disallow="pedestrian bicycle tram rail_urban rail rail_electric rail_fast ship" oneway="1"/>
    <type id="highway.trunk_link" priority="8" numLanes="1" speed="22.22" disallow="pedestrian bicycle tram rail_urban rail rail_electric rail_fast ship" oneway="1"/>
    <type id="highway.unclassified" priority="4" numLanes="1" speed="13.89" disallow="tram rail_urban rail rail_electric rail_fast ship" oneway="1"/>
    <type id="highway.unsurfaced" priority="1" numLanes="1" speed="8.33" disallow="tram rail_urban rail rail_electric rail_fast ship" oneway="1"/>
    <type id="railway.highspeed" priority="21" numLanes="1" speed="69.44" allow="rail_fast" oneway="1"/>
    <type id="railway.light_rail" priority="19" numLanes="1" speed="27.78" allow="rail_urban" oneway="1"/>
    <type id="railway.preserved" priority="16" numLanes="1" speed="27.78" allow="rail" oneway="1"/>
    <type id="railway.rail" priority="20" numLanes="1" speed="44.44" allow="rail" oneway="1"/>
    <type id="railway.subway" priority="18" numLanes="1" speed="27.78" allow="rail_urban" oneway="1"/>
    <type id="railway.tram" priority="17" numLanes="1" speed="13.89" allow="tram" oneway="1"/>

    <edge id=":1241354682_0" function="internal">
        <lane id=":1241354682_0_0" index="0" allow="private emergency authority army vip passenger hov taxi bus coach delivery truck trailer motorcycle evehicle custom1 custom2" speed="26.75" length="19.92" shape="3211.65,3890.19 3215.02,3888.39 3218.74,3886.41 3222.86,3883.58 3227.45,3879.22"/>
        <lane id=":1241354682_0_1" index="1" allow="private emergency authority army vip passenger hov taxi bus coach delivery truck trailer motorcycle evehicle custom1 custom2" speed="26.75" length="19.92" shape="3211.65,3890.19 3215.34,3888.78 3219.80,3887.62 3224.72,3885.54 3229.82,3881.37"/>
    </edge>
    <edge id=":1241354682_2" function="internal">
        <lane id=":1241354682_2_0" index="0" allow="private emergency authority army vip passenger hov taxi bus coach delivery truck trailer motorcycle evehicle custom1 custom2" speed="31.29" length="19.38" shape="3214.40,3893.53 3227.45,3879.22"/>
        <lane id=":1241354682_2_1" index="1" allow="private emergency authority army vip passenger hov taxi bus coach delivery truck trailer motorcycle evehicle custom1 custom2" speed="31.29" length="19.38" shape="3216.76,3895.68 3229.82,3881.37"/>
        <lane id=":1241354682_2_2" index="2" allow="private emergency authority army vip passenger hov taxi bus coach delivery truck trailer motorcycle evehicle custom1 custom2" speed="31.29" length="19.38" shape="3219.13,3897.84 3232.19,3883.52"/>
        <lane id=":1241354682_2_3" index="3" allow="private emergency authority army vip passenger hov taxi bus coach delivery truck trailer motorcycle evehicle custom1 custom2" speed="31.29" length="19.38" shape="3221.50,3899.99 3234.57,3885.66"/>
    </edge>
    <edge id=":1913883940_0" function="internal">
        <lane id=":1913883940_0_0" index="0" allow="private emergency authority army vip passenger hov taxi bus coach delivery truck trailer motorcycle evehicle custom1 custom2" speed="26.75" length="8.94" shape="5766.11,1099.91 5767.50,1097.69 5767.42,1095.54 5767.30,1093.35 5768.56,1091.00"/>
        <lane id=":1913883940_0_1" index="1" allow="private emergency authority army vip passenger hov taxi bus coach delivery truck trailer motorcycle evehicle custom1 custom2" speed="26.75" length="8.94" shape="5766.11,1099.91 5767.74,1098.14 5768.55,1096.66 5769.32,1095.13 5770.84,1093.24"/>
    </edge>
    <edge id=":1913883940_2" function="internal">
        <lane id=":1913883940_2_0" index="0" allow="private emergency authority army vip passenger hov taxi bus coach delivery truck trailer motorcycle evehicle custom1 custom2" speed="31.29" length="8.06" shape="5762.90,1097.01 5768.56,1091.00"/>
        <lane id=":1913883940_2_1" index="1" allow="private emergency authority army vip passenger hov taxi bus coach delivery truck trailer motorcycle evehicle custom1 custom2" speed="31.29" length="8.06" shape="5765.27,1099.16 5770.84,1093.24"/>
        <lane id=":1913883940_2_2" index="2" allow="private emergency authority army vip passenger hov taxi bus coach delivery truck trailer motorcycle evehicle custom1 custom2" speed="31.29" length="8.06" shape="5767.64,1101.31 5773.12,1095.49"/>
        <lane id=":1913883940_2_3" index="3" allow="private emergency authority army vip passenger hov taxi bus coach delivery truck trailer motorcycle evehicle custom1 custom2" speed="31.29" length="8.06" shape="5770.01,1103.46 5775.40,1097.73"/>
    </edge>
    <edge id=":1913884051_0" function="internal">
        <lane id=":1913884051_0_0" index="0" allow="private emergency authority army vip passenger hov taxi bus coach delivery truck trailer motorcycle evehicle custom1 custom2" speed="26.75" length="7.00" shape="4960.70,2018.90 4963.35,2025.38"/>
    </edge>
    <edge id=":1913884051_1" function="internal">
        <lane id=":1913884051_1_0" index="0" allow="private emergency authority army vip passenger hov taxi bus coach delivery truck trailer motorcycle evehicle custom1 custom2" speed="31.29" length="3.52" shape="4964.19,2022.09 4963.37,2022.62 4962.59,2022.66 4961.81,2022.69 4960.99,2023.22"/>
        <lane id=":1913884051_1_1" index="1" allow="private emergency authority army vip passenger hov taxi bus coach delivery truck trailer motorcycle evehicle custom1 custom2" speed="31.29" length="3.52" shape="4961.83,2019.93 4961.01,2020.46 4960.23,2020.50 4959.45,2020.54 4958.63,2021.07"/>
        <lane id=":1913884051_1_2" index="2" allow="private emergency authority army vip passenger hov taxi bus coach delivery truck trailer motorcycle evehicle custom1 custom2" speed="31.29" length="3.52" shape="4959.47,2017.77 4958.65,2018.30 4957.87,2018.34 4957.09,2018.38 4956.26,2018.91"/>
        <lane id=":1913884051_1_3" index="3" allow="private emergency authority army vip passenger hov taxi bus coach delivery truck trailer motorcycle evehicle custom1 custom2" speed="31.29" length="3.52" shape="4957.11,2015.61 4956.28,2016.15 4955.50,2016.18 4954.72,2016.22 4953.90,2016.75"/>
    </edge>
    <edge id=":202177572_0" function="internal">
        <lane id=":202177572_0_0" index="0" allow="private emergency authority army vip passenger hov taxi bus coach delivery truck trailer motorcycle evehicle custom1 custom2" speed="26.75" length="39.67" shape="2995.57,4181.52 2967.63,4209.69"/>
    </edge>
    <edge id=":202177572_1" function="internal">
        <lane id=":202177572_1_0" index="0" allow="private emergency authority army vip passenger hov taxi bus coach delivery truck trailer motorcycle evehicle custom1 custom2" speed="31.29" length="39.41" shape="2993.19,4179.39 2965.10,4207.44"/>
        <lane id=":202177572_1_1" index="1" allow="private emergency authority army vip passenger hov taxi bus coach delivery truck trailer motorcycle evehicle custom1 custom2" speed="31.29" length="39.41" shape="2990.81,4177.26 2962.85,4205.17"/>
        <lane id=":202177572_1_2" index="2" allow="private emergency authority army vip passenger hov taxi bus coach delivery truck trailer motorcycle evehicle custom1 custom2" speed="31.29" length="39.41" shape="2988.42,4175.12 2960.59,4202.90"/>
        <lane id=":202177572_1_3" index="3" allow="private emergency authority army vip passenger hov taxi bus coach delivery truck trailer motorcycle evehicle custom1 custom2" speed="31.29" length="39.41" shape="2986.04,4172.99 2958.34,4200.63"/>
    </edge>
    <edge id=":202185444_0" function="internal">
        <lane id=":202185444_0_0" index="0" allow="private emergency authority army vip passenger hov taxi bus coach delivery truck trailer motorcycle evehicle custom1 custom2" speed="26.75" length="10.90" shape="2518.81,4557.82 2515.96,4558.93 2513.83,4559.69 2511.74,4560.66 2508.99,4562.43"/>
    </edge>
    <edge id=":202185444_1" function="internal">
        <lane id=":202185444_1_0" index="0" allow="private emergency authority army vip passenger hov taxi bus coach delivery truck trailer motorcycle evehicle custom1 custom2" speed="31.29" length="11.23" shape="2517.10,4554.77 2514.26,4556.47 2512.11,4557.30 2509.97,4558.13 2507.13,4559.83"/>
        <lane id=":202185444_1_1" index="1" allow="private emergency authority army vip passenger hov taxi bus coach delivery truck trailer motorcycle evehicle custom1 custom2" speed="31.29" length="11.23" shape="2515.25,4552.16 2512.40,4553.86 2510.26,4554.69 2508.11,4555.52 2505.27,4557.22"/>
        <lane id=":202185444_1_2" index="2" allow="private emergency authority army vip passenger hov taxi bus coach delivery truck trailer motorcycle evehicle custom1 custom2" speed="31.29" length="11.23" shape="2513.39,4549.56 2510.55,4551.26 2508.40,4552.08 2506.25,4552.91 2503.41,4554.62"/>
        <lane id=":202185444_1_3" index="3" allow="private emergency authority army vip passenger hov taxi bus coach delivery truck trailer motorcycle evehicle custom1 custom2" speed="31.29" length="11.23" shape="2511.54,4546.95 2508.70,4548.65 2506.55,4549.48 2504.40,4550.31 2501.56,4552.01"/>
    </edge>
    <edge id=":202186118_0" function="internal">
        <lane id=":202186118_0_0" index="0" allow="private emergency authority army vip passenger hov taxi bus coach delivery truck trailer motorcycle evehicle custom1 custom2" speed="26.75" length="8.62" shape="1695.25,5097.58 1697.33,5096.09 1698.70,5094.99 1699.95,5093.76 1701.65,5091.86"/>
    </edge>
    <edge id=":202186118_1" function="internal">
        <lane id=":202186118_1_0" index="0" allow="private emergency authority army vip passenger hov taxi bus coach delivery truck trailer motorcycle evehicle custom1 custom2" speed="31.29" length="8.00" shape="1697.11,5100.19 1703.74,5095.67"/>
        <lane id=":202186118_1_1" index="1" allow="private emergency authority army vip passenger hov taxi bus coach delivery truck trailer motorcycle evehicle custom1 custom2" speed="31.29" length="8.00" shape="1698.96,5102.80 1705.58,5098.29"/>
        <lane id=":202186118_1_2" index="2" allow="private emergency authority army vip passenger hov taxi bus coach delivery truck trailer motorcycle evehicle custom1 custom2" speed="31.29" length="8.00" shape="1700.81,5105.41 1707.42,5100.91"/>
        <lane id=":202186118_1_3" index="3" allow="private emergency authority army vip passenger hov taxi bus coach delivery truck trailer motorcycle evehicle custom1 custom2" speed="31.29" length="8.00" shape="1702.66,5108.01 1709.26,5103.53"/>
    </edge>
    <edge id=":202186134_0" function="internal">
        <lane id=":202186134_0_0" index="0" allow="private emergency authority army vip passenger hov taxi bus coach delivery truck trailer motorcycle evehicle custom1 custom2" speed="26.75" length="10.65" shape="2198.01,4739.11 2200.80,4737.92 2202.84,4737.11 2204.84,4736.13 2207.52,4734.39"/>
    </edge>
    <edge id=":202186134_1" function="internal">
        <lane id=":202186134_1_0" index="0" allow="private emergency authority army vip passenger hov taxi bus coach delivery truck trailer motorcycle evehicle custom1 custom2" speed="31.29" length="10.90" shape="2199.75,4742.10 2202.50,4740.41 2204.55,4739.54 2206.61,4738.68 2209.37,4737.00"/>
        <lane id=":202186134_1_1" index="1" allow="private emergency authority army vip passenger hov taxi bus coach delivery truck trailer motorcycle evehicle custom1 custom2" speed="31.29" length="10.90" shape="2201.61,4744.71 2204.36,4743.02 2206.41,4742.15 2208.47,4741.29 2211.22,4739.61"/>
        <lane id=":202186134_1_2" index="2" allow="private emergency authority army vip passenger hov taxi bus coach delivery truck trailer motorcycle evehicle custom1 custom2" speed="31.29" length="10.90" shape="2203.48,4747.31 2206.22,4745.62 2208.27,4744.75 2210.32,4743.89 2213.07,4742.22"/>
        <lane id=":202186134_1_3" index="3" allow="private emergency authority army vip passenger hov taxi bus coach delivery truck trailer motorcycle evehicle custom1 custom2" speed="31.29" length="10.90" shape="2205.34,4749.91 2208.08,4748.22 2210.13,4747.36 2212.18,4746.50 2214.92,4744.83"/>
    </edge>
    <edge id=":202192528_0" function="internal">
        <lane id=":202192528_0_0" index="0" allow="private emergency authority army vip passenger hov taxi bus coach delivery truck trailer motorcycle evehicle custom1 custom2" speed="26.75" length="22.39" shape="1738.89,5110.94 1735.09,5112.29 1730.59,5113.88 1725.28,5116.30 1719.08,5120.13"/>
        <lane id=":202192528_0_1" index="1" allow="private emergency authority army vip passenger hov taxi bus coach delivery truck trailer motorcycle evehicle custom1 custom2" speed="26.75" length="22.39" shape="1738.89,5110.94 1734.85,5111.85 1729.79,5112.49 1723.86,5114.00 1717.23,5117.52"/>
    </edge>
    <edge id=":202192528_2" function="internal">
        <lane id=":202192528_2_0" index="0" allow="private emergency authority army vip passenger hov taxi bus coach delivery truck trailer motorcycle evehicle custom1 custom2" speed="31.29" length="21.91" shape="1736.91,5107.36 1719.08,5120.13"/>
        <lane id=":202192528_2_1" index="1" allow="private emergency authority army vip passenger hov taxi bus coach delivery truck trailer motorcycle evehicle custom1 custom2" speed="31.29" length="21.91" shape="1735.05,5104.76 1717.23,5117.52"/>
        <lane id=":202192528_2_2" index="2" allow="private emergency authority army vip passenger hov taxi bus coach delivery truck trailer motorcycle evehicle custom1 custom2" speed="31.29" length="21.91" shape="1733.19,5102.15 1715.38,5114.91"/>
        <lane id=":202192528_2_3" index="3" allow="private emergency authority army vip passenger hov taxi bus coach delivery truck trailer motorcycle evehicle custom1 custom2" speed="31.29" length="21.91" shape="1731.33,5099.55 1713.53,5112.30"/>
    </edge>
    <edge id=":202192541_0" function="internal">
        <lane id=":202192541_0_0" index="0" allow="private emergency authority army vip passenger hov taxi bus coach delivery truck trailer motorcycle evehicle custom1 custom2" speed="26.75" length="10.43" shape="2058.98,4883.30 2056.50,4885.19 2054.92,4886.67 2053.47,4888.24 2051.37,4890.40"/>
    </edge>
    <edge id=":202192541_1" function="internal">
        <lane id=":202192541_1_0" index="0" allow="private emergency authority army vip passenger hov taxi bus coach delivery truck trailer motorcycle evehicle custom1 custom2" speed="31.29" length="10.61" shape="2057.12,4880.70 2054.66,4882.67 2053.16,4884.24 2051.64,4885.80 2049.17,4887.76"/>
        <lane id=":202192541_1_1" index="1" allow="private emergency authority army vip passenger hov taxi bus coach delivery truck trailer motorcycle evehicle custom1 custom2" speed="31.29" length="10.61" shape="2055.26,4878.09 2052.81,4880.06 2051.31,4881.63 2049.80,4883.19 2047.34,4885.14"/>
        <lane id=":202192541_1_2" index="2" allow="private emergency authority army vip passenger hov taxi bus coach delivery truck trailer motorcycle evehicle custom1 custom2" speed="31.29" length="10.61" shape="2053.40,4875.49 2050.96,4877.45 2049.46,4879.01 2047.96,4880.57 2045.50,4882.51"/>
        <lane id=":202192541_1_3" index="3" allow="private emergency authority army vip passenger hov taxi bus coach delivery truck trailer motorcycle evehicle custom1 custom2" speed="31.29" length="10.61" shape="2051.54,4872.88 2049.11,4874.84 2047.62,4876.40 2046.12,4877.95 2043.67,4879.89"/>
    </edge>
    <edge id=":202236780_0" function="internal">
        <lane id=":202236780_0_0" index="0" allow="private emergency authority army vip passenger hov taxi bus coach delivery truck trailer motorcycle evehicle custom1 custom2" speed="31.29" length="0.74" shape="2775.44,4327.48 2776.27,4326.90"/>
        <lane id=":202236780_0_1" index="1" allow="private emergency authority army vip passenger hov taxi bus coach delivery truck trailer motorcycle evehicle custom1 custom2" speed="31.29" length="0.74" shape="2777.32,4330.07 2778.04,4329.57"/>
        <lane id=":202236780_0_2" index="2" allow="private emergency authority army vip passenger hov taxi bus coach delivery truck trailer motorcycle evehicle custom1 custom2" speed="31.29" length="0.74" shape="2779.20,4332.66 2779.81,4332.23"/>
        <lane id=":202236780_0_3" index="3" allow="private emergency authority army vip passenger hov taxi bus coach delivery truck trailer motorcycle evehicle custom1 custom2" speed="31.29" length="0.74" shape="2781.08,4335.25 2781.58,4334.90"/>
        <lane id=":202236780_0_4" index="4" allow="private emergency authority army vip passenger hov taxi bus coach delivery truck trailer motorcycle evehicle custom1 custom2" speed="31.29" length="0.74" shape="2782.96,4337.84 2783.35,4337.57"/>
    </edge>
    <edge id=":202476638_0" function="internal">
        <lane id=":202476638_0_0" index="0" allow="private emergency authority army vip passenger hov taxi bus coach delivery truck trailer motorcycle evehicle custom1 custom2" speed="26.75" length="9.16" shape="5015.96,1917.64 5018.14,1916.37 5020.26,1916.46 5022.32,1916.50 5024.33,1915.09"/>
        <lane id=":202476638_0_1" index="1" allow="private emergency authority army vip passenger hov taxi bus coach delivery truck trailer motorcycle evehicle custom1 custom2" speed="26.75" length="9.40" shape="5018.32,1919.80 5020.56,1918.47 5022.72,1918.51 5024.82,1918.50 5026.88,1917.02"/>
    </edge>
    <edge id=":202476638_2" function="internal">
        <lane id=":202476638_2_0" index="0" allow="private emergency authority army vip passenger hov taxi bus coach delivery truck trailer motorcycle evehicle custom1 custom2" speed="31.29" length="7.93" shape="5018.32,1919.80 5019.61,1918.02 5020.19,1916.58 5020.76,1915.14 5022.05,1913.35"/>
        <lane id=":202476638_2_1" index="1" allow="private emergency authority army vip passenger hov taxi bus coach delivery truck trailer motorcycle evehicle custom1 custom2" speed="31.29" length="7.93" shape="5020.68,1921.97 5022.03,1920.12 5022.65,1918.63 5023.26,1917.14 5024.61,1915.30"/>
        <lane id=":202476638_2_2" index="2" allow="private emergency authority army vip passenger hov taxi bus coach delivery truck trailer motorcycle evehicle custom1 custom2" speed="31.29" length="7.93" shape="5023.04,1924.13 5024.45,1922.22 5025.11,1920.69 5025.76,1919.15 5027.17,1917.24"/>
        <lane id=":202476638_2_3" index="3" allow="private emergency authority army vip passenger hov taxi bus coach delivery truck trailer motorcycle evehicle custom1 custom2" speed="31.29" length="7.93" shape="5025.40,1926.29 5026.87,1924.32 5027.57,1922.74 5028.26,1921.16 5029.73,1919.19"/>
    </edge>
    <edge id=":306535019_0" function="internal">
        <lane id=":306535019_0_0" index="0" allow="private emergency authority army vip passenger hov taxi bus coach delivery truck trailer motorcycle evehicle custom1 custom2" speed="31.29" length="0.29" shape="1843.40,4997.43 1843.60,4997.29"/>
        <lane id=":306535019_0_1" index="1" allow="private emergency authority army vip passenger hov taxi bus coach delivery truck trailer motorcycle evehicle custom1 custom2" speed="31.29" length="0.29" shape="1845.24,5000.05 1845.47,4999.88"/>
        <lane id=":306535019_0_2" index="2" allow="private emergency authority army vip passenger hov taxi bus coach delivery truck trailer motorcycle evehicle custom1 custom2" speed="31.29" length="0.29" shape="1847.08,5002.66 1847.33,5002.48"/>
        <lane id=":306535019_0_3" index="3" allow="private emergency authority army vip passenger hov taxi bus coach delivery truck trailer motorcycle evehicle custom1 custom2" speed="31.29" length="0.29" shape="1848.92,5005.28 1849.20,5005.08"/>
    </edge>
    <edge id=":306535020_0" function="internal">
        <lane id=":306535020_0_0" index="0" allow="private emergency authority army vip passenger hov taxi bus coach delivery truck trailer motorcycle evehicle custom1 custom2" speed="31.29" length="0.30" shape="1885.32,4967.31 1885.57,4967.13"/>
        <lane id=":306535020_0_1" index="1" allow="private emergency authority army vip passenger hov taxi bus coach delivery truck trailer motorcycle evehicle custom1 custom2" speed="31.29" length="0.30" shape="1887.18,4969.91 1887.43,4969.73"/>
        <lane id=":306535020_0_2" index="2" allow="private emergency authority army vip passenger hov taxi bus coach delivery truck trailer motorcycle evehicle custom1 custom2" speed="31.29" length="0.30" shape="1889.05,4972.51 1889.29,4972.33"/>
        <lane id=":306535020_0_3" index="3" allow="private emergency authority army vip passenger hov taxi bus coach delivery truck trailer motorcycle evehicle custom1 custom2" speed="31.29" length="0.30" shape="1890.92,4975.11 1891.16,4974.94"/>
    </edge>
    <edge id=":306535021_0" function="internal">
        <lane id=":306535021_0_0" index="0" allow="private emergency authority army vip passenger hov taxi bus coach delivery truck trailer motorcycle evehicle custom1 custom2" speed="31.29" length="0.30" shape="1907.21,4987.00 1906.93,4987.19"/>
        <lane id=":306535021_0_1" index="1" allow="private emergency authority army vip passenger hov taxi bus coach delivery truck trailer motorcycle evehicle custom1 custom2" speed="31.29" length="0.30" shape="1905.38,4984.38 1905.12,4984.55"/>
        <lane id=":306535021_0_2" index="2" allow="private emergency authority army vip passenger hov taxi bus coach delivery truck trailer motorcycle evehicle custom1 custom2" speed="31.29" length="0.30" shape="1903.54,4981.75 1903.31,4981.91"/>
        <lane id=":306535021_0_3" index="3" allow="private emergency authority army vip passenger hov taxi bus coach delivery truck trailer motorcycle evehicle custom1 custom2" speed="31.29" length="0.30" shape="1901.71,4979.13 1901.50,4979.27"/>
    </edge>
    <edge id=":306535022_0" function="internal">
        <lane id=":306535022_0_0" index="0" allow="private emergency authority army vip passenger hov taxi bus coach delivery truck trailer motorcycle evehicle custom1 custom2" speed="31.29" length="0.28" shape="1865.69,5015.47 1865.53,5015.58"/>
        <lane id=":306535022_0_1" index="1" allow="private emergency authority army vip passenger hov taxi bus coach delivery truck trailer motorcycle evehicle custom1 custom2" speed="31.29" length="0.28" shape="1863.88,5012.83 1863.67,5012.97"/>
        <lane id=":306535022_0_2" index="2" allow="private emergency authority army vip passenger hov taxi bus coach delivery truck trailer motorcycle evehicle custom1 custom2" speed="31.29" length="0.28" shape="1862.07,5010.19 1861.82,5010.37"/>
        <lane id=":306535022_0_3" index="3" allow="private emergency authority army vip passenger hov taxi bus coach delivery truck trailer motorcycle evehicle custom1 custom2" speed="31.29" length="0.28" shape="1860.26,5007.55 1859.96,5007.76"/>
    </edge>
    <edge id=":8913055537_0" function="internal">
        <lane id=":8913055537_0_0" index="0" allow="private emergency authority army vip passenger hov taxi bus coach delivery truck trailer motorcycle evehicle custom1 custom2" speed="26.75" length="34.27" shape="2433.96,4573.90 2443.34,4566.66 2450.63,4560.12 2456.00,4554.80 2459.60,4551.23"/>
    </edge>
    <edge id=":8913055537_1" function="internal">
        <lane id=":8913055537_1_0" index="0" allow="private emergency authority army vip passenger hov taxi bus coach delivery truck trailer motorcycle evehicle custom1 custom2" speed="31.29" length="34.26" shape="2433.96,4573.90 2461.91,4554.10"/>
        <lane id=":8913055537_1_1" index="1" allow="private emergency authority army vip passenger hov taxi bus coach delivery truck trailer motorcycle evehicle custom1 custom2" speed="31.29" length="34.26" shape="2435.81,4576.51 2463.76,4556.71"/>
        <lane id=":8913055537_1_2" index="2" allow="private emergency authority army vip passenger hov taxi bus coach delivery truck trailer motorcycle evehicle custom1 custom2" speed="31.29" length="34.26" shape="2437.66,4579.12 2465.61,4559.32"/>
        <lane id=":8913055537_1_3" index="3" allow="private emergency authority army vip passenger hov taxi bus coach delivery truck trailer motorcycle evehicle custom1 custom2" speed="31.29" length="34.26" shape="2439.51,4581.73 2467.46,4561.93"/>
        <lane id=":8913055537_1_4" index="4" allow="private emergency authority army vip passenger hov taxi bus coach delivery truck trailer motorcycle evehicle custom1 custom2" speed="31.29" length="34.26" shape="2441.35,4584.34 2469.31,4564.55"/>
    </edge>
    <edge id=":8993543865_0" function="internal">
        <lane id=":8993543865_0_0" index="0" allow="private emergency authority army vip passenger hov taxi bus coach delivery truck trailer motorcycle evehicle custom1 custom2" speed="22.22" length="8.21" shape="5133.67,1770.66 5134.92,1768.60 5135.45,1766.99 5135.98,1765.38 5137.22,1763.32"/>
        <lane id=":8993543865_0_1" index="1" allow="private emergency authority army vip passenger hov taxi bus coach delivery truck trailer motorcycle evehicle custom1 custom2" speed="22.22" length="8.21" shape="5136.22,1772.59 5137.47,1770.53 5138.00,1768.92 5138.53,1767.31 5139.77,1765.25"/>