<?xml version='1.0' encoding='UTF-8'?>
<routes>
    <vType id="trial" length="4.3" carFollowModel="IDM" maxSpeed="33.01979043420173" minGap="2.8650284294967294" accel="1.015477838603377" decel="2.1122965808393297" tau="1.4777361972200547" laneChangeModel="LC2013" lcStrategic="1.0" lcCooperative="1.0" lcAssertive="1" lcSpeedGain="1.0" lcKeepRight="1.0" lcOvertakeRight="0" /> 
	<route id="ramp" edges="ramp E2 E4" />
	<route id="mainlane" edges="E0 E1 E2 E4 " />
	
    <flow id="mainlane" type="trial" begin="0" end="300" vehsPerHour="5000" route="mainlane" departLane="random" departSpeed="desired" />
    <flow id="ramp_0" type="trial" begin="0" end="300" vehsPerHour="1000" route="ramp" departLane="random" departSpeed="speedLimit" />
</routes>