<?xml version="1.0" encoding="UTF-8"?>

<!-- generated on 2024-05-01 13:47:20 by Eclipse SUMO netedit Version 1.10.0
<configuration xmlns:xsi="http://www.w3.org/2001/XMLSchema-instance" xsi:noNamespaceSchemaLocation="http://sumo.dlr.de/xsd/netconvertConfiguration.xsd">

    <input>
        <sumo-net-file value="D:\Eclipse\compiled_linkage\SUMO_automated_bulidng_example_2\Work_with_Yanbing\NGSIM_PeachTree\NIGSIM_PeachTree.net.xml"/>
    </input>

    <output>
        <output-file value="D:\Eclipse\compiled_linkage\SUMO_automated_bulidng_example_2\Work_with_Yanbing\NGSIM_PeachTree\NIGSIM_PeachTree.net.xml"/>
    </output>

    <processing>
        <geometry.min-radius.fix.railways value="false"/>
        <geometry.max-grade.fix value="false"/>
        <offset.disable-normalization value="true"/>
        <lefthand value="false"/>
    </processing>

    <junctions>
        <no-turnarounds value="true"/>
        <junctions.corner-detail value="5"/>
        <junctions.limit-turn-speed value="5.5"/>
        <rectangular-lane-cut value="false"/>
    </junctions>

    <pedestrian>
        <walkingareas value="false"/>
    </pedestrian>

    <report>
        <aggregate-warnings value="5"/>
    </report>

</configuration>
-->

<net version="1.9" junctionCornerDetail="5" limitTurnSpeed="5.50" xmlns:xsi="http://www.w3.org/2001/XMLSchema-instance" xsi:noNamespaceSchemaLocation="http://sumo.dlr.de/xsd/net_file.xsd">

    <location netOffset="-741871.03,-3740926.86" convBoundary="275.73,0.00,516.08,759.05" origBoundary="-84.387834,33.780792,-84.380946,33.788332" projParameter="+proj=utm +zone=16 +ellps=WGS84 +datum=WGS84 +units=m +no_defs"/>

    <type id="highway.bridleway" priority="1" numLanes="1" speed="2.78" allow="pedestrian" oneway="1" width="2.00"/>
    <type id="highway.bus_guideway" priority="1" numLanes="1" speed="27.78" allow="bus" oneway="1"/>
    <type id="highway.cycleway" priority="1" numLanes="1" speed="8.33" allow="bicycle" oneway="1" width="1.00"/>
    <type id="highway.footway" priority="1" numLanes="1" speed="2.78" allow="pedestrian" oneway="1" width="2.00"/>
    <type id="highway.ford" priority="1" numLanes="1" speed="2.78" allow="army" oneway="1"/>
    <type id="highway.living_street" priority="2" numLanes="1" speed="2.78" disallow="tram rail_urban rail rail_electric rail_fast ship" oneway="1"/>
    <type id="highway.motorway" priority="14" numLanes="2" speed="39.44" allow="private emergency authority army vip passenger hov taxi bus coach delivery truck trailer motorcycle evehicle custom1 custom2" oneway="1"/>
    <type id="highway.motorway_link" priority="9" numLanes="1" speed="22.22" allow="private emergency authority army vip passenger hov taxi bus coach delivery truck trailer motorcycle evehicle custom1 custom2" oneway="1"/>
    <type id="highway.path" priority="1" numLanes="1" speed="2.78" allow="pedestrian bicycle" oneway="1" width="2.00"/>
    <type id="highway.pedestrian" priority="1" numLanes="1" speed="2.78" allow="pedestrian" oneway="1" width="2.00"/>
    <type id="highway.primary" priority="12" numLanes="2" speed="27.78" disallow="tram rail_urban rail rail_electric rail_fast ship" oneway="1"/>
    <type id="highway.primary_link" priority="7" numLanes="1" speed="22.22" disallow="tram rail_urban rail rail_electric rail_fast ship" oneway="1"/>
    <type id="highway.raceway" priority="15" numLanes="2" speed="83.33" allow="vip" oneway="1"/>
    <type id="highway.residential" priority="3" numLanes="1" speed="13.89" disallow="tram rail_urban rail rail_electric rail_fast ship" oneway="1"/>
    <type id="highway.secondary" priority="11" numLanes="1" speed="27.78" disallow="tram rail_urban rail rail_electric rail_fast ship" oneway="1"/>
    <type id="highway.secondary_link" priority="6" numLanes="1" speed="22.22" disallow="tram rail_urban rail rail_electric rail_fast ship" oneway="1"/>
    <type id="highway.service" priority="1" numLanes="1" speed="5.56" allow="pedestrian delivery bicycle" oneway="1"/>
    <type id="highway.stairs" priority="1" numLanes="1" speed="1.39" allow="pedestrian" oneway="1" width="2.00"/>
    <type id="highway.step" priority="1" numLanes="1" speed="1.39" allow="pedestrian" oneway="1" width="2.00"/>
    <type id="highway.steps" priority="1" numLanes="1" speed="1.39" allow="pedestrian" oneway="1" width="2.00"/>
    <type id="highway.tertiary" priority="10" numLanes="1" speed="22.22" disallow="tram rail_urban rail rail_electric rail_fast ship" oneway="1"/>
    <type id="highway.tertiary_link" priority="5" numLanes="1" speed="22.22" disallow="tram rail_urban rail rail_electric rail_fast ship" oneway="1"/>
    <type id="highway.track" priority="1" numLanes="1" speed="5.56" allow="pedestrian motorcycle moped bicycle" oneway="1"/>
    <type id="highway.trunk" priority="13" numLanes="2" speed="27.78" disallow="pedestrian bicycle tram rail_urban rail rail_electric rail_fast ship" oneway="1"/>
    <type id="highway.trunk_link" priority="8" numLanes="1" speed="22.22" disallow="pedestrian bicycle tram rail_urban rail rail_electric rail_fast ship" oneway="1"/>
    <type id="highway.unclassified" priority="4" numLanes="1" speed="13.89" disallow="tram rail_urban rail rail_electric rail_fast ship" oneway="1"/>
    <type id="highway.unsurfaced" priority="1" numLanes="1" speed="8.33" disallow="tram rail_urban rail rail_electric rail_fast ship" oneway="1"/>
    <type id="railway.highspeed" priority="21" numLanes="1" speed="69.44" allow="rail_fast" oneway="1"/>
    <type id="railway.light_rail" priority="19" numLanes="1" speed="27.78" allow="rail_urban" oneway="1"/>
    <type id="railway.preserved" priority="16" numLanes="1" speed="27.78" allow="rail" oneway="1"/>
    <type id="railway.rail" priority="20" numLanes="1" speed="44.44" allow="rail" oneway="1"/>
    <type id="railway.subway" priority="18" numLanes="1" speed="27.78" allow="rail_urban" oneway="1"/>
    <type id="railway.tram" priority="17" numLanes="1" speed="13.89" allow="tram" oneway="1"/>

    <edge id=":2390850312_0" function="internal">
        <lane id=":2390850312_0_0" index="0" disallow="tram rail_urban rail rail_electric rail_fast ship" speed="3.65" length="4.67" shape="389.96,759.52 388.84,760.43 387.96,760.58 387.31,759.96 386.90,758.58"/>
    </edge>
    <edge id=":2390850322_0" function="internal">
        <lane id=":2390850322_0_0" index="0" disallow="tram rail_urban rail rail_electric rail_fast ship" speed="27.78" length="0.29" shape="415.76,676.48 415.67,676.76"/>
    </edge>
    <edge id=":2390850322_1" function="internal">
        <lane id=":2390850322_1_0" index="0" disallow="tram rail_urban rail rail_electric rail_fast ship" speed="3.65" length="2.34" shape="415.76,676.48 414.64,677.38 413.75,677.52"/>
    </edge>
    <edge id=":2390850322_4" function="internal">
        <lane id=":2390850322_4_0" index="0" disallow="tram rail_urban rail rail_electric rail_fast ship" speed="3.65" length="2.34" shape="413.75,677.52 413.11,676.90 412.71,675.52"/>
    </edge>
    <edge id=":2390850322_2" function="internal">
        <lane id=":2390850322_2_0" index="0" disallow="tram rail_urban rail rail_electric rail_fast ship" speed="27.78" length="0.31" shape="412.62,675.81 412.71,675.52"/>
    </edge>
    <edge id=":2390850322_3" function="internal">
        <lane id=":2390850322_3_0" index="0" disallow="tram rail_urban rail rail_electric rail_fast ship" speed="3.65" length="2.34" shape="412.62,675.81 413.74,674.90 414.62,674.75"/>
    </edge>
    <edge id=":2390850322_5" function="internal">
        <lane id=":2390850322_5_0" index="0" disallow="tram rail_urban rail rail_electric rail_fast ship" speed="3.65" length="2.34" shape="414.62,674.75 415.27,675.37 415.67,676.76"/>
    </edge>
    <edge id=":3602660735_0" function="internal">
        <lane id=":3602660735_0_0" index="0" disallow="tram rail_urban rail rail_electric rail_fast ship" speed="11.18" length="0.34" shape="445.51,511.90 445.50,512.28"/>
        <lane id=":3602660735_0_1" index="1" disallow="tram rail_urban rail rail_electric rail_fast ship" speed="11.18" length="0.34" shape="442.31,511.82 442.30,512.13"/>
    </edge>
    <edge id=":3602660735_2" function="internal">
        <lane id=":3602660735_2_0" index="0" disallow="tram rail_urban rail rail_electric rail_fast ship" speed="3.65" length="2.34" shape="442.31,511.82 441.48,513.00 440.67,513.38"/>
    </edge>
    <edge id=":3602660735_6" function="internal">
        <lane id=":3602660735_6_0" index="0" disallow="tram rail_urban rail rail_electric rail_fast ship" speed="3.65" length="2.34" shape="440.67,513.38 439.88,512.96 439.11,511.74"/>
    </edge>
    <edge id=":3602660735_3" function="internal">
        <lane id=":3602660735_3_0" index="0" disallow="tram rail_urban rail rail_electric rail_fast ship" speed="11.18" length="0.21" shape="435.91,511.84 435.91,511.66"/>
        <lane id=":3602660735_3_1" index="1" disallow="tram rail_urban rail rail_electric rail_fast ship" speed="11.18" length="0.21" shape="439.11,511.99 439.11,511.74"/>
    </edge>
    <edge id=":3602660735_5" function="internal">
        <lane id=":3602660735_5_0" index="0" disallow="tram rail_urban rail rail_electric rail_fast ship" speed="3.65" length="2.34" shape="439.11,511.99 439.96,510.82 440.78,510.46"/>
    </edge>
    <edge id=":3602660735_7" function="internal">
        <lane id=":3602660735_7_0" index="0" disallow="tram rail_urban rail rail_electric rail_fast ship" speed="3.65" length="2.34" shape="440.78,510.46 441.56,510.90 442.30,512.13"/>
    </edge>
    <edge id=":3602660743_0" function="internal">
        <lane id=":3602660743_0_0" index="0" disallow="tram rail_urban rail rail_electric rail_fast ship" speed="11.18" length="0.41" shape="444.84,526.82 444.81,527.31"/>
        <lane id=":3602660743_0_1" index="1" disallow="tram rail_urban rail rail_electric rail_fast ship" speed="11.18" length="0.41" shape="441.64,526.68 441.62,527.02"/>
    </edge>
    <edge id=":3602660743_2" function="internal">
        <lane id=":3602660743_2_0" index="0" disallow="tram rail_urban rail rail_electric rail_fast ship" speed="3.65" length="2.34" shape="441.64,526.68 440.79,527.84 439.97,528.21"/>
    </edge>
    <edge id=":3602660743_6" function="internal">
        <lane id=":3602660743_6_0" index="0" disallow="tram rail_urban rail rail_electric rail_fast ship" speed="3.65" length="2.34" shape="439.97,528.21 439.19,527.77 438.45,526.54"/>
    </edge>
    <edge id=":3602660743_3" function="internal">
        <lane id=":3602660743_3_0" index="0" disallow="tram rail_urban rail rail_electric rail_fast ship" speed="11.18" length="0.11" shape="435.25,526.43 435.25,526.39"/>
        <lane id=":3602660743_3_1" index="1" disallow="tram rail_urban rail rail_electric rail_fast ship" speed="11.18" length="0.11" shape="438.43,526.73 438.45,526.54"/>
    </edge>
    <edge id=":3602660743_5" function="internal">
        <lane id=":3602660743_5_0" index="0" disallow="tram rail_urban rail rail_electric rail_fast ship" speed="3.65" length="2.34" shape="438.43,526.73 439.34,525.60 440.17,525.28"/>
    </edge>
    <edge id=":3602660743_7" function="internal">
        <lane id=":3602660743_7_0" index="0" disallow="tram rail_urban rail rail_electric rail_fast ship" speed="3.65" length="2.34" shape="440.17,525.28 440.93,525.75 441.62,527.02"/>
    </edge>
    <edge id=":3602660753_0" function="internal">
        <lane id=":3602660753_0_0" index="0" disallow="tram rail_urban rail rail_electric rail_fast ship" speed="11.18" length="2.38" shape="431.23,631.38 431.61,629.02"/>
        <lane id=":3602660753_0_1" index="1" disallow="tram rail_urban rail rail_electric rail_fast ship" speed="11.18" length="2.38" shape="428.07,630.86 428.45,628.51"/>
    </edge>
    <edge id=":3602660753_2" function="internal">
        <lane id=":3602660753_2_0" index="0" disallow="tram rail_urban rail rail_electric rail_fast ship" speed="3.65" length="2.34" shape="428.07,630.86 427.09,631.91 426.23,632.18"/>
    </edge>
    <edge id=":3602660753_6" function="internal">
        <lane id=":3602660753_6_0" index="0" disallow="tram rail_urban rail rail_electric rail_fast ship" speed="3.65" length="2.34" shape="426.23,632.18 425.51,631.65 424.91,630.34"/>
    </edge>
    <edge id=":3602660753_3" function="internal">
        <lane id=":3602660753_3_0" index="0" disallow="tram rail_urban rail rail_electric rail_fast ship" speed="11.18" length="2.38" shape="422.14,627.48 421.75,629.82"/>
        <lane id=":3602660753_3_1" index="1" disallow="tram rail_urban rail rail_electric rail_fast ship" speed="11.18" length="2.38" shape="425.30,627.99 424.91,630.34"/>
    </edge>
    <edge id=":3602660753_5" function="internal">
        <lane id=":3602660753_5_0" index="0" disallow="tram rail_urban rail rail_electric rail_fast ship" speed="3.65" length="2.34" shape="425.30,627.99 426.28,626.94 427.13,626.67"/>
    </edge>
    <edge id=":3602660753_7" function="internal">
        <lane id=":3602660753_7_0" index="0" disallow="tram rail_urban rail rail_electric rail_fast ship" speed="3.65" length="2.34" shape="427.13,626.67 427.86,627.19 428.45,628.51"/>
    </edge>
    <edge id=":3602660757_0" function="internal">
        <lane id=":3602660757_0_0" index="0" disallow="tram rail_urban rail rail_electric rail_fast ship" speed="27.78" length="2.00" shape="437.38,644.77 439.41,644.06"/>
        <lane id=":3602660757_0_1" index="1" disallow="tram rail_urban rail rail_electric rail_fast ship" speed="27.78" length="2.00" shape="436.62,641.66 438.36,641.04"/>
    </edge>
    <edge id=":3602660757_2" function="internal">
        <lane id=":3602660757_2_0" index="0" disallow="tram rail_urban rail rail_electric rail_fast ship" speed="3.65" length="2.34" shape="436.62,641.66 435.26,641.17 434.68,640.49"/>
    </edge>
    <edge id=":3602660757_7" function="internal">
        <lane id=":3602660757_7_0" index="0" disallow="tram rail_urban rail rail_electric rail_fast ship" speed="3.65" length="2.34" shape="434.68,640.49 434.88,639.62 435.86,638.56"/>
    </edge>
    <edge id=":3602660757_3" function="internal">
        <lane id=":3602660757_3_0" index="0" disallow="tram rail_urban rail rail_electric rail_fast ship" speed="27.78" length="1.26" shape="435.22,631.97 434.33,632.34"/>
        <lane id=":3602660757_3_1" index="1" disallow="tram rail_urban rail rail_electric rail_fast ship" speed="27.78" length="1.26" shape="436.27,634.99 435.09,635.45"/>
        <lane id=":3602660757_3_2" index="2" disallow="tram rail_urban rail rail_electric rail_fast ship" speed="27.78" length="1.26" shape="437.32,638.01 435.86,638.56"/>
    </edge>
    <edge id=":3602660757_6" function="internal">
        <lane id=":3602660757_6_0" index="0" disallow="tram rail_urban rail rail_electric rail_fast ship" speed="3.65" length="2.34" shape="437.32,638.01 438.71,638.38 439.35,639.00"/>
    </edge>
    <edge id=":3602660757_8" function="internal">
        <lane id=":3602660757_8_0" index="0" disallow="tram rail_urban rail rail_electric rail_fast ship" speed="3.65" length="2.34" shape="439.35,639.00 439.24,639.89 438.36,641.04"/>
    </edge>
    <edge id=":3602660758_0" function="internal">
        <lane id=":3602660758_0_0" index="0" disallow="tram rail_urban rail rail_electric rail_fast ship" speed="27.78" length="2.23" shape="412.18,639.01 414.32,639.64"/>
        <lane id=":3602660758_0_1" index="1" disallow="tram rail_urban rail rail_electric rail_fast ship" speed="13.96" length="2.23" shape="411.27,642.19 411.92,642.21 412.36,642.32 412.79,642.49 413.41,642.71"/>
    </edge>
    <edge id=":3602660759_0" function="internal">
        <lane id=":3602660759_0_0" index="0" disallow="tram rail_urban rail rail_electric rail_fast ship" speed="27.78" length="2.65" shape="414.72,649.64 412.25,650.59"/>
        <lane id=":3602660759_0_1" index="1" disallow="tram rail_urban rail rail_electric rail_fast ship" speed="27.78" length="2.65" shape="413.56,646.65 411.09,647.61"/>
    </edge>
    <edge id=":3602660762_0" function="internal">
        <lane id=":3602660762_0_0" index="0" disallow="tram rail_urban rail rail_electric rail_fast ship" speed="27.78" length="0.30" shape="421.52,658.25 421.43,658.54"/>
    </edge>
    <edge id=":3602660762_1" function="internal">
        <lane id=":3602660762_1_0" index="0" disallow="tram rail_urban rail rail_electric rail_fast ship" speed="3.65" length="2.34" shape="421.52,658.25 420.40,659.15 419.51,659.29"/>
    </edge>
    <edge id=":3602660762_4" function="internal">
        <lane id=":3602660762_4_0" index="0" disallow="tram rail_urban rail rail_electric rail_fast ship" speed="3.65" length="2.34" shape="419.51,659.29 418.87,658.67 418.47,657.29"/>
    </edge>
    <edge id=":3602660762_2" function="internal">
        <lane id=":3602660762_2_0" index="0" disallow="tram rail_urban rail rail_electric rail_fast ship" speed="27.78" length="0.30" shape="418.38,657.57 418.47,657.29"/>
    </edge>
    <edge id=":3602660762_3" function="internal">
        <lane id=":3602660762_3_0" index="0" disallow="tram rail_urban rail rail_electric rail_fast ship" speed="3.65" length="2.34" shape="418.38,657.57 419.50,656.67 420.39,656.53"/>
    </edge>
    <edge id=":3602660762_5" function="internal">
        <lane id=":3602660762_5_0" index="0" disallow="tram rail_urban rail rail_electric rail_fast ship" speed="3.65" length="2.34" shape="420.39,656.53 421.03,657.15 421.43,658.54"/>
    </edge>
    <edge id=":4165941938_0" function="internal">
        <lane id=":4165941938_0_0" index="0" disallow="tram rail_urban rail rail_electric rail_fast ship" speed="11.18" length="0.30" shape="434.81,406.04 434.73,405.74"/>
        <lane id=":4165941938_0_1" index="1" disallow="tram rail_urban rail rail_electric rail_fast ship" speed="11.18" length="0.30" shape="437.91,405.24 437.83,404.95"/>
    </edge>
    <edge id=":4165941938_2" function="internal">
        <lane id=":4165941938_2_0" index="0" disallow="tram rail_urban rail rail_electric rail_fast ship" speed="3.65" length="2.34" shape="437.91,405.24 438.38,403.88 439.06,403.30"/>
    </edge>
    <edge id=":4165941938_6" function="internal">
        <lane id=":4165941938_6_0" index="0" disallow="tram rail_urban rail rail_electric rail_fast ship" speed="3.65" length="2.34" shape="439.06,403.30 439.93,403.48 441.01,404.45"/>
    </edge>
    <edge id=":4165941938_3" function="internal">
        <lane id=":4165941938_3_0" index="0" disallow="tram rail_urban rail rail_electric rail_fast ship" speed="11.18" length="0.30" shape="444.03,403.37 444.11,403.65"/>
        <lane id=":4165941938_3_1" index="1" disallow="tram rail_urban rail rail_electric rail_fast ship" speed="11.18" length="0.30" shape="440.93,404.16 441.01,404.45"/>
    </edge>
    <edge id=":4165941938_5" function="internal">
        <lane id=":4165941938_5_0" index="0" disallow="tram rail_urban rail rail_electric rail_fast ship" speed="3.65" length="2.34" shape="440.93,404.16 440.46,405.52 439.78,406.10"/>
    </edge>
    <edge id=":4165941938_7" function="internal">
        <lane id=":4165941938_7_0" index="0" disallow="tram rail_urban rail rail_electric rail_fast ship" speed="3.65" length="2.34" shape="439.78,406.10 438.90,405.92 437.83,404.95"/>
    </edge>
    <edge id=":4165941940_0" function="internal">
        <lane id=":4165941940_0_0" index="0" disallow="tram rail_urban rail rail_electric rail_fast ship" speed="13.89" length="0.30" shape="449.91,393.60 449.62,393.66"/>
    </edge>
    <edge id=":4165941940_1" function="internal">
        <lane id=":4165941940_1_0" index="0" disallow="tram rail_urban rail rail_electric rail_fast ship" speed="3.65" length="2.34" shape="449.91,393.60 448.57,393.09 448.00,392.40"/>
    </edge>
    <edge id=":4165941940_4" function="internal">
        <lane id=":4165941940_4_0" index="0" disallow="tram rail_urban rail rail_electric rail_fast ship" speed="3.65" length="2.34" shape="448.00,392.40 448.21,391.53 449.20,390.48"/>
    </edge>
    <edge id=":4165941940_2" function="internal">
        <lane id=":4165941940_2_0" index="0" disallow="tram rail_urban rail rail_electric rail_fast ship" speed="13.89" length="0.30" shape="448.91,390.54 449.20,390.48"/>
    </edge>
    <edge id=":4165941940_3" function="internal">
        <lane id=":4165941940_3_0" index="0" disallow="tram rail_urban rail rail_electric rail_fast ship" speed="3.65" length="2.34" shape="448.91,390.54 450.26,391.06 450.82,391.75"/>
    </edge>
    <edge id=":4165941940_5" function="internal">
        <lane id=":4165941940_5_0" index="0" disallow="tram rail_urban rail rail_electric rail_fast ship" speed="3.65" length="2.34" shape="450.82,391.75 450.61,392.62 449.62,393.66"/>
    </edge>
    <edge id=":4165941942_0" function="internal">
        <lane id=":4165941942_0_0" index="0" disallow="tram rail_urban rail rail_electric rail_fast ship" speed="11.18" length="0.31" shape="430.22,387.88 430.14,387.58"/>
        <lane id=":4165941942_0_1" index="1" disallow="tram rail_urban rail rail_electric rail_fast ship" speed="11.18" length="0.31" shape="433.32,387.10 433.25,386.81"/>
    </edge>
    <edge id=":4165941942_2" function="internal">
        <lane id=":4165941942_2_0" index="0" disallow="tram rail_urban rail rail_electric rail_fast ship" speed="3.65" length="2.34" shape="433.32,387.10 433.81,385.74 434.49,385.16"/>
    </edge>
    <edge id=":4165941942_6" function="internal">
        <lane id=":4165941942_6_0" index="0" disallow="tram rail_urban rail rail_electric rail_fast ship" speed="3.65" length="2.34" shape="434.49,385.16 435.36,385.36 436.43,386.33"/>
    </edge>
    <edge id=":4165941942_3" function="internal">
        <lane id=":4165941942_3_0" index="0" disallow="tram rail_urban rail rail_electric rail_fast ship" speed="11.18" length="0.29" shape="439.46,385.27 439.53,385.56"/>
        <lane id=":4165941942_3_1" index="1" disallow="tram rail_urban rail rail_electric rail_fast ship" speed="11.18" length="0.29" shape="436.36,386.04 436.43,386.33"/>
    </edge>
    <edge id=":4165941942_5" function="internal">
        <lane id=":4165941942_5_0" index="0" disallow="tram rail_urban rail rail_electric rail_fast ship" speed="3.65" length="2.34" shape="436.36,386.04 435.87,387.40 435.19,387.98"/>
    </edge>
    <edge id=":4165941942_7" function="internal">
        <lane id=":4165941942_7_0" index="0" disallow="tram rail_urban rail rail_electric rail_fast ship" speed="3.65" length="2.34" shape="435.19,387.98 434.32,387.78 433.25,386.81"/>
    </edge>
    <edge id=":4165941961_0" function="internal">
        <lane id=":4165941961_0_0" index="0" disallow="tram rail_urban rail rail_electric rail_fast ship" speed="11.18" length="0.10" shape="357.96,273.79 357.96,273.79"/>
    </edge>
    <edge id=":4165941961_1" function="internal">
        <lane id=":4165941961_1_0" index="0" disallow="tram rail_urban rail rail_electric rail_fast ship" speed="3.65" length="2.34" shape="357.96,273.79 356.77,272.98 356.37,272.18"/>
    </edge>
    <edge id=":4165941961_4" function="internal">
        <lane id=":4165941961_4_0" index="0" disallow="tram rail_urban rail rail_electric rail_fast ship" speed="3.65" length="2.34" shape="356.37,272.18 356.77,271.38 357.98,270.59"/>
    </edge>
    <edge id=":4165941961_2" function="internal">
        <lane id=":4165941961_2_0" index="0" disallow="tram rail_urban rail rail_electric rail_fast ship" speed="11.18" length="0.10" shape="357.98,270.59 357.98,270.59"/>
    </edge>
    <edge id=":4165941961_3" function="internal">
        <lane id=":4165941961_3_0" index="0" disallow="tram rail_urban rail rail_electric rail_fast ship" speed="3.65" length="2.34" shape="357.98,270.59 359.17,271.40 359.57,272.20"/>
    </edge>
    <edge id=":4165941961_5" function="internal">
        <lane id=":4165941961_5_0" index="0" disallow="tram rail_urban rail rail_electric rail_fast ship" speed="3.65" length="2.34" shape="359.57,272.20 359.17,273.00 357.96,273.79"/>
    </edge>
    <edge id=":4165941963_0" function="internal">
        <lane id=":4165941963_0_0" index="0" disallow="tram rail_urban rail rail_electric rail_fast ship" speed="11.18" length="0.30" shape="368.25,280.80 368.16,280.51"/>
        <lane id=":4165941963_0_1" index="1" disallow="tram rail_urban rail rail_electric rail_fast ship" speed="11.18" length="0.30" shape="371.29,279.79 371.19,279.50"/>
    </edge>
    <edge id=":4165941963_2" function="internal">
        <lane id=":4165941963_2_0" index="0" disallow="tram rail_urban rail rail_electric rail_fast ship" speed="3.65" length="2.34" shape="371.29,279.79 371.67,278.40 372.30,277.76"/>
    </edge>
    <edge id=":4165941963_6" function="internal">
        <lane id=":4165941963_6_0" index="0" disallow="tram rail_urban rail rail_electric rail_fast ship" speed="3.65" length="2.34" shape="372.30,277.76 373.19,277.89 374.33,278.78"/>
    </edge>
    <edge id=":4165941963_3" function="internal">
        <lane id=":4165941963_3_0" index="0" disallow="tram rail_urban rail rail_electric rail_fast ship" speed="11.18" length="0.30" shape="377.27,277.49 377.36,277.76"/>
        <lane id=":4165941963_3_1" index="1" disallow="tram rail_urban rail rail_electric rail_fast ship" speed="11.18" length="0.30" shape="374.23,278.49 374.33,278.78"/>
    </edge>
    <edge id=":4165941963_5" function="internal">
        <lane id=":4165941963_5_0" index="0" disallow="tram rail_urban rail rail_electric rail_fast ship" speed="3.65" length="2.34" shape="374.23,278.49 373.85,279.88 373.22,280.52"/>
    </edge>
    <edge id=":4165941963_7" function="internal">
        <lane id=":4165941963_7_0" index="0" disallow="tram rail_urban rail rail_electric rail_fast ship" speed="3.65" length="2.34" shape="373.22,280.52 372.33,280.39 371.19,279.50"/>
    </edge>
    <edge id=":4165941966_0" function="internal">
        <lane id=":4165941966_0_0" index="0" disallow="tram rail_urban rail rail_electric rail_fast ship" speed="11.18" length="0.30" shape="360.45,255.77 360.44,255.46"/>
        <lane id=":4165941966_0_1" index="1" disallow="tram rail_urban rail rail_electric rail_fast ship" speed="11.18" length="0.30" shape="363.65,255.62 363.63,255.32"/>
    </edge>
    <edge id=":4165941966_2" function="internal">
        <lane id=":4165941966_2_0" index="0" disallow="tram rail_urban rail rail_electric rail_fast ship" speed="3.65" length="2.34" shape="363.65,255.62 364.39,254.38 365.17,253.94"/>
    </edge>
    <edge id=":4165941966_6" function="internal">
        <lane id=":4165941966_6_0" index="0" disallow="tram rail_urban rail rail_electric rail_fast ship" speed="3.65" length="2.34" shape="365.17,253.94 365.99,254.30 366.85,255.46"/>
    </edge>
    <edge id=":4165941966_3" function="internal">
        <lane id=":4165941966_3_0" index="0" disallow="tram rail_urban rail rail_electric rail_fast ship" speed="11.18" length="0.30" shape="370.03,255.02 370.04,255.31"/>
        <lane id=":4165941966_3_1" index="1" disallow="tram rail_urban rail rail_electric rail_fast ship" speed="11.18" length="0.30" shape="366.83,255.17 366.85,255.46"/>
    </edge>
    <edge id=":4165941966_5" function="internal">
        <lane id=":4165941966_5_0" index="0" disallow="tram rail_urban rail rail_electric rail_fast ship" speed="3.65" length="2.34" shape="366.83,255.17 366.09,256.40 365.31,256.84"/>
    </edge>
    <edge id=":4165941966_7" function="internal">
        <lane id=":4165941966_7_0" index="0" disallow="tram rail_urban rail rail_electric rail_fast ship" speed="3.65" length="2.34" shape="365.31,256.84 364.49,256.48 363.63,255.32"/>
    </edge>
    <edge id=":4165941968_0" function="internal">
        <lane id=":4165941968_0_0" index="0" disallow="tram rail_urban rail rail_electric rail_fast ship" speed="11.18" length="0.10" shape="380.18,265.97 380.18,265.97"/>
    </edge>
    <edge id=":4165941968_1" function="internal">
        <lane id=":4165941968_1_0" index="0" disallow="tram rail_urban rail rail_electric rail_fast ship" speed="3.65" length="2.34" shape="380.18,265.97 378.75,265.77 378.05,265.22"/>
    </edge>
    <edge id=":4165941968_4" function="internal">
        <lane id=":4165941968_4_0" index="0" disallow="tram rail_urban rail rail_electric rail_fast ship" speed="3.65" length="2.34" shape="378.05,265.22 378.06,264.32 378.80,263.09"/>
    </edge>
    <edge id=":4165941968_2" function="internal">
        <lane id=":4165941968_2_0" index="0" disallow="tram rail_urban rail rail_electric rail_fast ship" speed="11.18" length="0.10" shape="378.80,263.09 378.80,263.09"/>
    </edge>
    <edge id=":4165941968_3" function="internal">
        <lane id=":4165941968_3_0" index="0" disallow="tram rail_urban rail rail_electric rail_fast ship" speed="3.65" length="2.34" shape="378.80,263.09 380.23,263.29 380.93,263.84"/>
    </edge>
    <edge id=":4165941968_5" function="internal">
        <lane id=":4165941968_5_0" index="0" disallow="tram rail_urban rail rail_electric rail_fast ship" speed="3.65" length="2.34" shape="380.93,263.84 380.92,264.74 380.18,265.97"/>
    </edge>
    <edge id=":4165941970_0" function="internal">
        <lane id=":4165941970_0_0" index="0" disallow="tram rail_urban rail rail_electric rail_fast ship" speed="13.41" length="0.90" shape="347.46,108.76 347.12,108.79 346.89,108.79 346.66,108.77 346.33,108.75"/>
        <lane id=":4165941970_0_1" index="1" disallow="tram rail_urban rail rail_electric rail_fast ship" speed="13.41" length="0.90" shape="347.13,105.58 346.94,105.59 346.80,105.58 346.67,105.57 346.47,105.56"/>
    </edge>
    <edge id=":4165941970_2" function="internal">
        <lane id=":4165941970_2_0" index="0" disallow="tram rail_urban rail rail_electric rail_fast ship" speed="3.65" length="2.34" shape="347.13,105.58 345.86,104.90 345.38,104.15"/>
    </edge>
    <edge id=":4165941970_6" function="internal">
        <lane id=":4165941970_6_0" index="0" disallow="tram rail_urban rail rail_electric rail_fast ship" speed="3.65" length="2.34" shape="345.38,104.15 345.70,103.31 346.81,102.39"/>
    </edge>
    <edge id=":4165941970_3" function="internal">