<?xml version="1.0" ?>
<additional xmlns:xsi="http://www.w3.org/2001/XMLSchema-instance" xsi:noNamespaceSchemaLocation="http://sumo.dlr.de/xsd/additional_file.xsd">
   <vTypeDistribution id="vehDist">
      <vType id="vehDist0" tau="0.825" sigma="0.401" length="5.151" vClass="passenger" carFollowModel="Krauss">
         <param key="myCustomParameter" value="4.724"/>
      </vType>
      <vType id="vehDist1" tau="0.702" sigma="0.613" length="4.666" vClass="passenger" carFollowModel="Krauss">
         <param key="myCustomParameter" value="8.476"/>
      </vType>
      <vType id="vehDist2" tau="0.768" sigma="0.736" length="5.201" vClass="passenger" carFollowModel="Krauss">
         <param key="myCustomParameter" value="8.899"/>
      </vType>
      <vType id="vehDist3" tau="1.031" sigma="0.407" length="5.196" vClass="passenger" carFollowModel="Krauss">
         <param key="myCustomParameter" value="7.936"/>
      </vType>
      <vType id="vehDist4" tau="0.837" sigma="0.369" length="4.712" vClass="passenger" carFollowModel="Krauss">
         <param key="myCustomParameter" value="3.104"/>
      </vType>
      <vType id="vehDist5" tau="0.837" sigma="0.444" length="5.030" vClass="passenger" carFollowModel="Krauss">
         <param key="myCustomParameter" value="0.834"/>
      </vType>
      <vType id="vehDist6" tau="0.707" sigma="0.562" length="4.814" vClass="passenger" carFollowModel="Krauss">
         <param key="myCustomParameter" value="6.884"/>
      </vType>
      <vType id="vehDist7" tau="0.844" sigma="0.763" length="4.793" vClass="passenger" carFollowModel="Krauss">
         <param key="myCustomParameter" value="5.286"/>
      </vType>
      <vType id="vehDist8" tau="0.942" sigma="0.456" length="4.541" vClass="passenger" carFollowModel="Krauss">
         <param key="myCustomParameter" value="6.734"/>
      </vType>
      <vType id="vehDist9" tau="0.679" sigma="0.635" length="4.677" vClass="passenger" carFollowModel="Krauss">
         <param key="myCustomParameter" value="2.642"/>
      </vType>
      <vType id="vehDist10" tau="0.628" sigma="0.675" length="4.900" vClass="passenger" carFollowModel="Krauss">
         <param key="myCustomParameter" value="3.085"/>
      </vType>
      <vType id="vehDist11" tau="0.822" sigma="0.696" length="5.104" vClass="passenger" carFollowModel="Krauss">
         <param key="myCustomParameter" value="4.299"/>
      </vType>
      <vType id="vehDist12" tau="0.662" sigma="0.605" length="4.881" vClass="passenger" carFollowModel="Krauss">
         <param key="myCustomParameter" value="4.665"/>
      </vType>
      <vType id="vehDist13" tau="0.825" sigma="0.351" length="4.856" vClass="passenger" carFollowModel="Krauss">
         <param key="myCustomParameter" value="3.323"/>
      </vType>
      <vType id="vehDist14" tau="0.733" sigma="0.381" length="4.501" vClass="passenger" carFollowModel="Krauss">
         <param key="myCustomParameter" value="2.284"/>
      </vType>
      <vType id="vehDist15" tau="0.744" sigma="0.848" length="4.856" vClass="passenger" carFollowModel="Krauss">
         <param key="myCustomParameter" value="6.303"/>
      </vType>
      <vType id="vehDist16" tau="0.678" sigma="0.451" length="5.141" vClass="passenger" carFollowModel="Krauss">
         <param key="myCustomParameter" value="4.494"/>
      </vType>
      <vType id="vehDist17" tau="0.883" sigma="0.307" length="4.863" vClass="passenger" carFollowModel="Krauss">
         <param key="myCustomParameter" value="3.593"/>
      </vType>
      <vType id="vehDist18" tau="0.809" sigma="0.644" length="4.894" vClass="passenger" carFollowModel="Krauss">
         <param key="myCustomParameter" value="4.639"/>
      </vType>
      <vType id="vehDist19" tau="0.613" sigma="0.473" length="4.968" vClass="passenger" carFollowModel="Krauss">
         <param key="myCustomParameter" value="3.316"/>
      </vType>
      <vType id="vehDist20" tau="0.829" sigma="0.135" length="4.907" vClass="passenger" carFollowModel="Krauss">
         <param key="myCustomParameter" value="3.231"/>
      </vType>
      <vType id="vehDist21" tau="0.850" sigma="0.397" length="5.078" vClass="passenger" carFollowModel="Krauss">
         <param key="myCustomParameter" value="5.852"/>
      </vType>
      <vType id="vehDist22" tau="0.767" sigma="0.620" length="4.542" vClass="passenger" carFollowModel="Krauss">
         <param key="myCustomParameter" value="3.516"/>
      </vType>
      <vType id="vehDist23" tau="0.842" sigma="0.246" length="4.629" vClass="passenger" carFollowModel="Krauss">
         <param key="myCustomParameter" value="3.139"/>
      </vType>
      <vType id="vehDist24" tau="0.773" sigma="0.886" length="5.055" vClass="passenger" carFollowModel="Krauss">
         <param key="myCustomParameter" value="1.982"/>
      </vType>
      <vType id="vehDist25" tau="0.701" sigma="0.594" length="4.963" vClass="passenger" carFollowModel="Krauss">
         <param key="myCustomParameter" value="4.584"/>
      </vType>
      <vType id="vehDist26" tau="0.782" sigma="0.564" length="5.085" vClass="passenger" carFollowModel="Krauss">
         <param key="myCustomParameter" value="4.749"/>
      </vType>
      <vType id="vehDist27" tau="0.952" sigma="0.775" length="4.762" vClass="passenger" carFollowModel="Krauss">
         <param key="myCustomParameter" value="6.733"/>
      </vType>
      <vType id="vehDist28" tau="0.752" sigma="0.415" length="5.045" vClass="passenger" carFollowModel="Krauss">
         <param key="myCustomParameter" value="6.105"/>
      </vType>
      <vType id="vehDist29" tau="0.540" sigma="0.480" length="5.031" vClass="passenger" carFollowModel="Krauss">
         <param key="myCustomParameter" value="0.656"/>
      </vType>
      <vType id="vehDist30" tau="0.911" sigma="0.581" length="5.116" vClass="passenger" carFollowModel="Krauss">
         <param key="myCustomParameter" value="2.624"/>
      </vType>
      <vType id="vehDist31" tau="0.857" sigma="0.575" length="4.807" vClass="passenger" carFollowModel="Krauss">
         <param key="myCustomParameter" value="2.110"/>
      </vType>
      <vType id="vehDist32" tau="0.824" sigma="0.752" length="4.850" vClass="passenger" carFollowModel="Krauss">
         <param key="myCustomParameter" value="5.841"/>
      </vType>
      <vType id="vehDist33" tau="0.590" sigma="0.608" length="4.789" vClass="passenger" carFollowModel="Krauss">
         <param key="myCustomParameter" value="4.525"/>
      </vType>
      <vType id="vehDist34" tau="0.690" sigma="0.859" length="4.749" vClass="passenger" carFollowModel="Krauss">
         <param key="myCustomParameter" value="4.427"/>
      </vType>
      <vType id="vehDist35" tau="0.850" sigma="0.475" length="4.807" vClass="passenger" carFollowModel="Krauss">
         <param key="myCustomParameter" value="6.223"/>
      </vType>
      <vType id="vehDist36" tau="0.653" sigma="0.569" length="5.339" vClass="passenger" carFollowModel="Krauss">
         <param key="myCustomParameter" value="5.765"/>
      </vType>
      <vType id="vehDist37" tau="0.717" sigma="0.421" length="4.555" vClass="passenger" carFollowModel="Krauss">
         <param key="myCustomParameter" value="4.974"/>
      </vType>
      <vType id="vehDist38" tau="0.987" sigma="0.265" length="4.906" vClass="passenger" carFollowModel="Krauss">
         <param key="myCustomParameter" value="4.248"/>
      </vType>
      <vType id="vehDist39" tau="1.128" sigma="0.847" length="5.052" vClass="passenger" carFollowModel="Krauss">
         <param key="myCustomParameter" value="7.509"/>
      </vType>
      <vType id="vehDist40" tau="0.794" sigma="0.261" length="5.091" vClass="passenger" carFollowModel="Krauss">
         <param key="myCustomParameter" value="5.600"/>
      </vType>
      <vType id="vehDist41" tau="0.699" sigma="0.385" length="4.916" vClass="passenger" carFollowModel="Krauss">
         <param key="myCustomParameter" value="1.987"/>
      </vType>
      <vType id="vehDist42" tau="0.838" sigma="0.431" length="4.864" vClass="passenger" carFollowModel="Krauss">
         <param key="myCustomParameter" value="2.121"/>
      </vType>
      <vType id="vehDist43" tau="0.847" sigma="0.294" length="4.790" vClass="passenger" carFollowModel="Krauss">
         <param key="myCustomParameter" value="5.399"/>
      </vType>
      <vType id="vehDist44" tau="0.739" sigma="0.477" length="4.725" vClass="passenger" carFollowModel="Krauss">
         <param key="myCustomParameter" value="4.607"/>
      </vType>
      <vType id="vehDist45" tau="0.794" sigma="0.543" length="4.817" vClass="passenger" carFollowModel="Krauss">
         <param key="myCustomParameter" value="2.678"/>
      </vType>
      <vType id="vehDist46" tau="0.676" sigma="0.353" length="5.044" vClass="passenger" carFollowModel="Krauss">
         <param key="myCustomParameter" value="10.144"/>
      </vType>
      <vType id="vehDist47" tau="0.754" sigma="0.735" length="5.112" vClass="passenger" carFollowModel="Krauss">
         <param key="myCustomParameter" value="1.120"/>
      </vType>
      <vType id="vehDist48" tau="0.814" sigma="0.794" length="4.610" vClass="passenger" carFollowModel="Krauss">
         <param key="myCustomParameter" value="5.961"/>
      </vType>
      <vType id="vehDist49" tau="0.700" sigma="0.761" length="4.980" vClass="passenger" carFollowModel="Krauss">
         <param key="myCustomParameter" value="6.755"/>
      </vType>
      <vType id="vehDist50" tau="0.950" sigma="0.649" length="4.861" vClass="passenger" carFollowModel="Krauss">
         <param key="myCustomParameter" value="5.031"/>
      </vType>
      <vType id="vehDist51" tau="0.936" sigma="0.626" length="4.489" vClass="passenger" carFollowModel="Krauss">
         <param key="myCustomParameter" value="5.254"/>
      </vType>
      <vType id="vehDist52" tau="0.759" sigma="0.673" length="4.869" vClass="passenger" carFollowModel="Krauss">
         <param key="myCustomParameter" value="4.573"/>
      </vType>
      <vType id="vehDist53" tau="0.874" sigma="0.011" length="4.442" vClass="passenger" carFollowModel="Krauss">
         <param key="myCustomParameter" value="5.954"/>
      </vType>
      <vType id="vehDist54" tau="0.792" sigma="0.685" length="4.885" vClass="passenger" carFollowModel="Krauss">
         <param key="myCustomParameter" value="3.206"/>
      </vType>
      <vType id="vehDist55" tau="0.847" sigma="0.553" length="4.918" vClass="passenger" carFollowModel="Krauss">
         <param key="myCustomParameter" value="6.261"/>
      </vType>
      <vType id="vehDist56" tau="0.848" sigma="0.403" length="4.780" vClass="passenger" carFollowModel="Krauss">
         <param key="myCustomParameter" value="5.517"/>
      </vType>
      <vType id="vehDist57" tau="0.731" sigma="0.480" length="5.244" vClass="passenger" carFollowModel="Krauss">
         <param key="myCustomParameter" value="4.172"/>
      </vType>
      <vType id="vehDist58" tau="0.732" sigma="0.516" length="4.978" vClass="passenger" carFollowModel="Krauss">
         <param key="myCustomParameter" value="7.483"/>
      </vType>
      <vType id="vehDist59" tau="0.950" sigma="0.481" length="5.190" vClass="passenger" carFollowModel="Krauss">
         <param key="myCustomParameter" value="6.844"/>
      </vType>
      <vType id="vehDist60" tau="0.603" sigma="0.531" length="5.130" vClass="passenger" carFollowModel="Krauss">
         <param key="myCustomParameter" value="6.288"/>
      </vType>
      <vType id="vehDist61" tau="0.807" sigma="0.359" length="5.006" vClass="passenger" carFollowModel="Krauss">
         <param key="myCustomParameter" value="3.729"/>
      </vType>
      <vType id="vehDist62" tau="0.833" sigma="0.545" length="4.586" vClass="passenger" carFollowModel="Krauss">
         <param key="myCustomParameter" value="6.276"/>
      </vType>
      <vType id="vehDist63" tau="0.932" sigma="0.444" length="5.453" vClass="passenger" carFollowModel="Krauss">
         <param key="myCustomParameter" value="3.345"/>
      </vType>
      <vType id="vehDist64" tau="0.899" sigma="0.417" length="5.116" vClass="passenger" carFollowModel="Krauss">
         <param key="myCustomParameter" value="8.041"/>
      </vType>
      <vType id="vehDist65" tau="0.799" sigma="0.222" length="4.819" vClass="passenger" carFollowModel="Krauss">
         <param key="myCustomParameter" value="7.713"/>
      </vType>
      <vType id="vehDist66" tau="0.840" sigma="0.471" length="5.074" vClass="passenger" carFollowModel="Krauss">
         <param key="myCustomParameter" value="5.802"/>
      </vType>
      <vType id="vehDist67" tau="0.798" sigma="0.422" length="5.310" vClass="passenger" carFollowModel="Krauss">
         <param key="myCustomParameter" value="3.094"/>
      </vType>
      <vType id="vehDist68" tau="0.920" sigma="0.477" length="4.832" vClass="passenger" carFollowModel="Krauss">
         <param key="myCustomParameter" value="5.249"/>
      </vType>
      <vType id="vehDist69" tau="0.716" sigma="0.735" length="5.012" vClass="passenger" carFollowModel="Krauss">
         <param key="myCustomParameter" value="7.335"/>
      </vType>
      <vType id="vehDist70" tau="0.765" sigma="0.549" length="4.639" vClass="passenger" carFollowModel="Krauss">
         <param key="myCustomParameter" value="5.198"/>
      </vType>
      <vType id="vehDist71" tau="0.793" sigma="0.727" length="5.051" vClass="passenger" carFollowModel="Krauss">
         <param key="myCustomParameter" value="0.296"/>
      </vType>
      <vType id="vehDist72" tau="0.814" sigma="0.794" length="4.534" vClass="passenger" carFollowModel="Krauss">
         <param key="myCustomParameter" value="0.562"/>
      </vType>
      <vType id="vehDist73" tau="0.807" sigma="0.394" length="4.896" vClass="passenger" carFollowModel="Krauss">
         <param key="myCustomParameter" value="5.202"/>
      </vType>
      <vType id="vehDist74" tau="0.820" sigma="0.477" length="4.547" vClass="passenger" carFollowModel="Krauss">
         <param key="myCustomParameter" value="5.321"/>
      </vType>
      <vType id="vehDist75" tau="0.942" sigma="0.674" length="5.213" vClass="passenger" carFollowModel="Krauss">
         <param key="myCustomParameter" value="8.269"/>
      </vType>
      <vType id="vehDist76" tau="0.640" sigma="0.737" length="5.129" vClass="passenger" carFollowModel="Krauss">
         <param key="myCustomParameter" value="5.164"/>
      </vType>
      <vType id="vehDist77" tau="0.865" sigma="0.563" length="4.560" vClass="passenger" carFollowModel="Krauss">
         <param key="myCustomParameter" value="3.197"/>
      </vType>
      <vType id="vehDist78" tau="0.973" sigma="0.440" length="5.212" vClass="passenger" carFollowModel="Krauss">
         <param key="myCustomParameter" value="6.496"/>
      </vType>
      <vType id="vehDist79" tau="0.612" sigma="0.730" length="4.787" vClass="passenger" carFollowModel="Krauss">
         <param key="myCustomParameter" value="2.406"/>
      </vType>
      <vType id="vehDist80" tau="0.855" sigma="0.835" length="4.673" vClass="passenger" carFollowModel="Krauss">
         <param key="myCustomParameter" value="3.866"/>
      </vType>
      <vType id="vehDist81" tau="0.695" sigma="0.372" length="4.983" vClass="passenger" carFollowModel="Krauss">
         <param key="myCustomParameter" value="3.323"/>
      </vType>
      <vType id="vehDist82" tau="0.796" sigma="0.558" length="4.722" vClass="passenger" carFollowModel="Krauss">
         <param key="myCustomParameter" value="7.497"/>
      </vType>
      <vType id="vehDist83" tau="0.794" sigma="0.135" length="4.957" vClass="passenger" carFollowModel="Krauss">
         <param key="myCustomParameter" value="6.236"/>
      </vType>
      <vType id="vehDist84" tau="0.909" sigma="0.838" length="5.356" vClass="passenger" carFollowModel="Krauss">
         <param key="myCustomParameter" value="5.727"/>
      </vType>
      <vType id="vehDist85" tau="0.776" sigma="0.588" length="4.622" vClass="passenger" carFollowModel="Krauss">
         <param key="myCustomParameter" value="3.718"/>
      </vType>
      <vType id="vehDist86" tau="1.037" sigma="0.622" length="5.053" vClass="passenger" carFollowModel="Krauss">
         <param key="myCustomParameter" value="7.150"/>
      </vType>
      <vType id="vehDist87" tau="1.007" sigma="0.437" length="4.680" vClass="passenger" carFollowModel="Krauss">
         <param key="myCustomParameter" value="4.526"/>
      </vType>
      <vType id="vehDist88" tau="0.871" sigma="0.325" length="5.149" vClass="passenger" carFollowModel="Krauss">
         <param key="myCustomParameter" value="3.979"/>
      </vType>
      <vType id="vehDist89" tau="0.743" sigma="0.368" length="4.671" vClass="passenger" carFollowModel="Krauss">
         <param key="myCustomParameter" value="7.277"/>
      </vType>
      <vType id="vehDist90" tau="0.932" sigma="0.598" length="4.868" vClass="passenger" carFollowModel="Krauss">
         <param key="myCustomParameter" value="4.938"/>
      </vType>
      <vType id="vehDist91" tau="0.760" sigma="1.189" length="4.819" vClass="passenger" carFollowModel="Krauss">
         <param key="myCustomParameter" value="3.788"/>
      </vType>
      <vType id="vehDist92" tau="0.909" sigma="0.656" length="4.934" vClass="passenger" carFollowModel="Krauss">
         <param key="myCustomParameter" value="6.301"/>
      </vType>
      <vType id="vehDist93" tau="0.653" sigma="0.372" length="5.089" vClass="passenger" carFollowModel="Krauss">
         <param key="myCustomParameter" value="3.599"/>
      </vType>
      <vType id="vehDist94" tau="0.748" sigma="0.557" length="4.767" vClass="passenger" carFollowModel="Krauss">
         <param key="myCustomParameter" value="6.750"/>
      </vType>
      <vType id="vehDist95" tau="0.880" sigma="0.696" length="4.630" vClass="passenger" carFollowModel="Krauss">
         <param key="myCustomParameter" value="5.136"/>
      </vType>
      <vType id="vehDist96" tau="0.794" sigma="0.625" length="4.533" vClass="passenger" carFollowModel="Krauss">
         <param key="myCustomParameter" value="2.945"/>
      </vType>
      <vType id="vehDist97" tau="0.851" sigma="0.519" length="4.940" vClass="passenger" carFollowModel="Krauss">
         <param key="myCustomParameter" value="9.703"/>
      </vType>
      <vType id="vehDist98" tau="0.912" sigma="0.597" length="4.878" vClass="passenger" carFollowModel="Krauss">
         <param key="myCustomParameter" value="3.989"/>
      </vType>
      <vType id="vehDist99" tau="0.784" sigma="0.425" length="4.849" vClass="passenger" carFollowModel="Krauss">
         <param key="myCustomParameter" value="7.411"/>
      </vType>
   </vTypeDistribution>
</additional>
