<?xml version="1.0" encoding="UTF-8"?>

<!-- generated on 2024-07-21 11:21:45 by Eclipse SUMO netedit Version 1.19.0
<configuration xmlns:xsi="http://www.w3.org/2001/XMLSchema-instance" xsi:noNamespaceSchemaLocation="http://sumo.dlr.de/xsd/neteditConfiguration.xsd">

    <input>
        <sumo-net-file value="C:\Users\yanbing.wang\Documents\traffic\sumo\I24scenario\I24_scenario.net.xml"/>
    </input>

    <output>
        <output-file value="C:\Users\yanbing.wang\Documents\traffic\sumo\I24scenario\I24_scenario.net.xml"/>
    </output>

    <processing>
        <geometry.min-radius.fix.railways value="false"/>
        <geometry.max-grade.fix value="false"/>
        <offset.disable-normalization value="true"/>
        <lefthand value="0"/>
    </processing>

    <junctions>
        <no-turnarounds value="true"/>
        <junctions.corner-detail value="5"/>
        <junctions.limit-turn-speed value="5.50"/>
        <rectangular-lane-cut value="0"/>
    </junctions>

    <pedestrian>
        <walkingareas value="0"/>
    </pedestrian>

</configuration>
-->

<net version="1.16" junctionCornerDetail="5" limitTurnSpeed="5.50" xmlns:xsi="http://www.w3.org/2001/XMLSchema-instance" xsi:noNamespaceSchemaLocation="http://sumo.dlr.de/xsd/net_file.xsd">

    <location netOffset="0.00,0.00" convBoundary="-4180.00,-206.28,4000.00,0.00" origBoundary="-10000000000.00,-10000000000.00,10000000000.00,10000000000.00" projParameter="!"/>

    <edge id=":J1_0" function="internal">
        <lane id=":J1_0_0" index="0" speed="8.54" length="3.87" shape="-26.01,-18.67 -25.03,-18.07 -24.31,-17.75 -23.52,-17.62 -22.38,-17.60"/>
    </edge>
    <edge id=":J1_1" function="internal">
        <lane id=":J1_1_0" index="0" speed="30.00" length="3.94" shape="-26.32,-14.40 -22.38,-14.40"/>
        <lane id=":J1_1_1" index="1" speed="30.00" length="3.94" shape="-26.32,-11.20 -22.38,-11.20"/>
        <lane id=":J1_1_2" index="2" speed="30.00" length="3.94" shape="-26.32,-8.00 -22.38,-8.00"/>
        <lane id=":J1_1_3" index="3" speed="30.00" length="3.94" shape="-26.32,-4.80 -22.38,-4.80"/>
        <lane id=":J1_1_4" index="4" speed="30.00" length="3.94" shape="-26.32,-1.60 -22.38,-1.60"/>
    </edge>
    <edge id=":J10_0" function="internal">
        <lane id=":J10_0_0" index="0" speed="30.00" length="8.00" shape="1836.00,-11.20 1844.00,-11.20"/>
        <lane id=":J10_0_1" index="1" speed="30.00" length="8.00" shape="1836.00,-8.00 1844.00,-8.00"/>
        <lane id=":J10_0_2" index="2" speed="30.00" length="8.00" shape="1836.00,-4.80 1844.00,-4.80"/>
        <lane id=":J10_0_3" index="3" speed="30.00" length="8.00" shape="1836.00,-1.60 1844.00,-1.60"/>
    </edge>
    <edge id=":J2_0" function="internal">
        <lane id=":J2_0_0" index="0" speed="30.00" length="8.00" shape="276.00,-14.40 284.00,-14.40"/>
        <lane id=":J2_0_1" index="1" speed="30.00" length="8.00" shape="276.00,-11.20 284.00,-11.20"/>
        <lane id=":J2_0_2" index="2" speed="30.00" length="8.00" shape="276.00,-8.00 284.00,-8.00"/>
        <lane id=":J2_0_3" index="3" speed="30.00" length="8.00" shape="276.00,-4.80 284.00,-4.80"/>
        <lane id=":J2_0_4" index="4" speed="30.00" length="8.00" shape="276.00,-1.60 284.00,-1.60"/>
    </edge>
    <edge id=":J6_0" function="internal">
        <lane id=":J6_0_0" index="0" speed="13.02" length="3.59" shape="929.79,-14.40 930.85,-14.41 931.58,-14.49 932.29,-14.69 933.28,-15.07"/>
    </edge>
    <edge id=":J6_1" function="internal">
        <lane id=":J6_1_0" index="0" speed="30.00" length="3.62" shape="929.79,-11.20 933.41,-11.20"/>
        <lane id=":J6_1_1" index="1" speed="30.00" length="3.62" shape="929.79,-8.00 933.41,-8.00"/>
        <lane id=":J6_1_2" index="2" speed="30.00" length="3.62" shape="929.79,-4.80 933.41,-4.80"/>
        <lane id=":J6_1_3" index="3" speed="30.00" length="3.62" shape="929.79,-1.60 933.41,-1.60"/>
    </edge>
    <edge id=":J8_0" function="internal">
        <lane id=":J8_0_0" index="0" speed="8.35" length="3.90" shape="1479.73,-15.51 1480.70,-14.89 1481.43,-14.56 1482.22,-14.42 1483.37,-14.40"/>
    </edge>
    <edge id=":J8_1" function="internal">
        <lane id=":J8_1_0" index="0" speed="30.00" length="3.97" shape="1479.39,-11.20 1483.37,-11.20"/>
        <lane id=":J8_1_1" index="1" speed="30.00" length="3.97" shape="1479.39,-8.00 1483.37,-8.00"/>
        <lane id=":J8_1_2" index="2" speed="30.00" length="3.97" shape="1479.39,-4.80 1483.37,-4.80"/>
        <lane id=":J8_1_3" index="3" speed="30.00" length="3.97" shape="1479.39,-1.60 1483.37,-1.60"/>
    </edge>

    <edge id="E0" from="J0" to="J1" priority="-1">
        <lane id="E0_0" index="0" speed="30.00" length="4153.68" shape="-4180.00,-14.40 -26.32,-14.40"/>
        <lane id="E0_1" index="1" speed="30.00" length="4153.68" shape="-4180.00,-11.20 -26.32,-11.20"/>
        <lane id="E0_2" index="2" speed="30.00" length="4153.68" shape="-4180.00,-8.00 -26.32,-8.00"/>
        <lane id="E0_3" index="3" speed="30.00" length="4153.68" shape="-4180.00,-4.80 -26.32,-4.80"/>
        <lane id="E0_4" index="4" speed="30.00" length="4153.68" shape="-4180.00,-1.60 -26.32,-1.60"/>
    </edge>
    <edge id="E1" from="J1" to="J2" priority="-1">
        <lane id="E1_0" index="0" speed="30.00" length="298.38" acceleration="1" shape="-22.38,-17.60 276.00,-17.60"/>
        <lane id="E1_1" index="1" speed="30.00" length="298.38" shape="-22.38,-14.40 276.00,-14.40"/>
        <lane id="E1_2" index="2" speed="30.00" length="298.38" shape="-22.38,-11.20 276.00,-11.20"/>
        <lane id="E1_3" index="3" speed="30.00" length="298.38" shape="-22.38,-8.00 276.00,-8.00"/>
        <lane id="E1_4" index="4" speed="30.00" length="298.38" shape="-22.38,-4.80 276.00,-4.80"/>
        <lane id="E1_5" index="5" speed="30.00" length="298.38" shape="-22.38,-1.60 276.00,-1.60"/>
    </edge>
    <edge id="E2" from="J5" to="J1" priority="-1">
        <lane id="E2_0" index="0" speed="30.00" length="348.75" shape="-319.13,-207.62 -26.01,-18.67"/>
    </edge>
    <edge id="E3" from="J2" to="J6" priority="-1">
        <lane id="E3_0" index="0" speed="30.00" length="645.79" shape="284.00,-14.40 929.79,-14.40"/>
        <lane id="E3_1" index="1" speed="30.00" length="645.79" shape="284.00,-11.20 929.79,-11.20"/>
        <lane id="E3_2" index="2" speed="30.00" length="645.79" shape="284.00,-8.00 929.79,-8.00"/>
        <lane id="E3_3" index="3" speed="30.00" length="645.79" shape="284.00,-4.80 929.79,-4.80"/>
        <lane id="E3_4" index="4" speed="30.00" length="645.79" shape="284.00,-1.60 929.79,-1.60"/>
    </edge>
    <edge id="E4" from="J6" to="J7" priority="-1">
        <lane id="E4_0" index="0" speed="30.00" length="178.99" shape="933.28,-15.07 1099.40,-81.71"/>
    </edge>
    <edge id="E5" from="J6" to="J8" priority="-1">
        <lane id="E5_0" index="0" speed="30.00" length="545.99" shape="933.41,-11.20 1479.39,-11.20"/>
        <lane id="E5_1" index="1" speed="30.00" length="545.99" shape="933.41,-8.00 1479.39,-8.00"/>
        <lane id="E5_2" index="2" speed="30.00" length="545.99" shape="933.41,-4.80 1479.39,-4.80"/>
        <lane id="E5_3" index="3" speed="30.00" length="545.99" shape="933.41,-1.60 1479.39,-1.60"/>
    </edge>
    <edge id="E6" from="J9" to="J8" priority="-1">
        <lane id="E6_0" index="0" speed="30.00" length="335.64" shape="1200.89,-202.32 1479.73,-15.51"/>
    </edge>
    <edge id="E7" from="J8" to="J10" priority="-1" length="286.00">
        <lane id="E7_0" index="0" speed="30.00" length="286.00" acceleration="1" shape="1483.37,-14.40 1836.00,-14.40"/>
        <lane id="E7_1" index="1" speed="30.00" length="286.00" shape="1483.37,-11.20 1836.00,-11.20"/>
        <lane id="E7_2" index="2" speed="30.00" length="286.00" shape="1483.37,-8.00 1836.00,-8.00"/>
        <lane id="E7_3" index="3" speed="30.00" length="286.00" shape="1483.37,-4.80 1836.00,-4.80"/>
        <lane id="E7_4" index="4" speed="30.00" length="286.00" shape="1483.37,-1.60 1836.00,-1.60"/>
    </edge>
    <edge id="E8" from="J10" to="J11" priority="-1">
        <lane id="E8_0" index="0" speed="30.00" length="2156.00" shape="1844.00,-11.20 4000.00,-11.20"/>
        <lane id="E8_1" index="1" speed="30.00" length="2156.00" shape="1844.00,-8.00 4000.00,-8.00"/>
        <lane id="E8_2" index="2" speed="30.00" length="2156.00" shape="1844.00,-4.80 4000.00,-4.80"/>
        <lane id="E8_3" index="3" speed="30.00" length="2156.00" shape="1844.00,-1.60 4000.00,-1.60"/>
    </edge>

    <junction id="J0" type="dead_end" x="-4180.00" y="0.00" incLanes="" intLanes="" shape="-4180.00,0.00 -4180.00,-16.00"/>
    <junction id="J1" type="priority" x="0.00" y="0.00" incLanes="E2_0 E0_0 E0_1 E0_2 E0_3 E0_4" intLanes=":J1_0_0 :J1_1_0 :J1_1_1 :J1_1_2 :J1_1_3 :J1_1_4" shape="-22.38,0.00 -22.38,-19.20 -23.47,-19.24 -23.85,-19.31 -24.21,-19.46 -24.61,-19.68 -25.14,-20.01 -26.87,-17.32 -25.90,-16.59 -25.71,-16.33 -25.72,-16.15 -25.92,-16.04 -26.32,-16.00 -26.32,0.00">
        <request index="0" response="000000" foes="000000" cont="0"/>
        <request index="1" response="000000" foes="000000" cont="0"/>
        <request index="2" response="000000" foes="000000" cont="0"/>
        <request index="3" response="000000" foes="000000" cont="0"/>
        <request index="4" response="000000" foes="000000" cont="0"/>
        <request index="5" response="000000" foes="000000" cont="0"/>
    </junction>
    <junction id="J10" type="priority" x="1840.00" y="0.00" incLanes="E7_0 E7_1 E7_2 E7_3 E7_4" intLanes=":J10_0_0 :J10_0_1 :J10_0_2 :J10_0_3" shape="1844.00,0.00 1844.00,-12.80 1840.97,-13.63 1839.03,-15.17 1837.79,-15.76 1836.00,-16.00 1836.00,0.00">
        <request index="0" response="0000" foes="0000" cont="0"/>
        <request index="1" response="0000" foes="0000" cont="0"/>
        <request index="2" response="0000" foes="0000" cont="0"/>
        <request index="3" response="0000" foes="0000" cont="0"/>
    </junction>
    <junction id="J11" type="dead_end" x="4000.00" y="0.00" incLanes="E8_0 E8_1 E8_2 E8_3" intLanes="" shape="4000.00,-12.80 4000.00,0.00"/>
    <junction id="J2" type="priority" x="280.00" y="0.00" incLanes="E1_0 E1_1 E1_2 E1_3 E1_4 E1_5" intLanes=":J2_0_0 :J2_0_1 :J2_0_2 :J2_0_3 :J2_0_4" shape="284.00,0.00 284.00,-16.00 280.97,-16.83 279.03,-18.37 277.79,-18.96 276.00,-19.20 276.00,0.00">
        <request index="0" response="00000" foes="00000" cont="0"/>
        <request index="1" response="00000" foes="00000" cont="0"/>
        <request index="2" response="00000" foes="00000" cont="0"/>
        <request index="3" response="00000" foes="00000" cont="0"/>
        <request index="4" response="00000" foes="00000" cont="0"/>
    </junction>
    <junction id="J5" type="dead_end" x="-320.00" y="-206.28" incLanes="" intLanes="" shape="-320.00,-206.28 -318.27,-208.97"/>
    <junction id="J6" type="priority" x="900.00" y="0.00" incLanes="E3_0 E3_1 E3_2 E3_3 E3_4" intLanes=":J6_0_0 :J6_1_0 :J6_1_1 :J6_1_2 :J6_1_3" shape="933.41,0.00 933.41,-12.80 933.87,-13.59 932.68,-16.56 931.65,-16.17 931.28,-16.07 930.89,-16.02 930.42,-16.00 929.79,-16.00 929.79,0.00">
        <request index="0" response="00000" foes="00000" cont="0"/>
        <request index="1" response="00000" foes="00000" cont="0"/>
        <request index="2" response="00000" foes="00000" cont="0"/>
        <request index="3" response="00000" foes="00000" cont="0"/>
        <request index="4" response="00000" foes="00000" cont="0"/>
    </junction>
    <junction id="J7" type="dead_end" x="1100.00" y="-80.23" incLanes="E4_0" intLanes="" shape="1098.81,-83.20 1100.00,-80.23"/>
    <junction id="J8" type="priority" x="1500.00" y="0.00" incLanes="E6_0 E5_0 E5_1 E5_2 E5_3" intLanes=":J8_0_0 :J8_1_0 :J8_1_1 :J8_1_2 :J8_1_3" shape="1483.37,0.00 1483.37,-16.00 1482.28,-16.04 1481.90,-16.12 1481.54,-16.26 1481.14,-16.50 1480.62,-16.83 1478.84,-14.18 1479.81,-13.41 1480.01,-13.14 1480.00,-12.95 1479.80,-12.84 1479.39,-12.80 1479.39,0.00">
        <request index="0" response="00000" foes="00000" cont="0"/>
        <request index="1" response="00000" foes="00000" cont="0"/>
        <request index="2" response="00000" foes="00000" cont="0"/>
        <request index="3" response="00000" foes="00000" cont="0"/>
        <request index="4" response="00000" foes="00000" cont="0"/>
    </junction>
    <junction id="J9" type="dead_end" x="1200.00" y="-200.99" incLanes="" intLanes="" shape="1200.00,-200.99 1201.78,-203.65"/>

    <connection from="E0" to="E1" fromLane="0" toLane="1" via=":J1_1_0" dir="s" state="M"/>
    <connection from="E0" to="E1" fromLane="1" toLane="2" via=":J1_1_1" dir="s" state="M"/>
    <connection from="E0" to="E1" fromLane="2" toLane="3" via=":J1_1_2" dir="s" state="M"/>
    <connection from="E0" to="E1" fromLane="3" toLane="4" via=":J1_1_3" dir="s" state="M"/>
    <connection from="E0" to="E1" fromLane="4" toLane="5" via=":J1_1_4" dir="s" state="M"/>
    <connection from="E1" to="E3" fromLane="1" toLane="0" via=":J2_0_0" dir="s" state="M"/>
    <connection from="E1" to="E3" fromLane="2" toLane="1" via=":J2_0_1" dir="s" state="M"/>
    <connection from="E1" to="E3" fromLane="3" toLane="2" via=":J2_0_2" dir="s" state="M"/>
    <connection from="E1" to="E3" fromLane="4" toLane="3" via=":J2_0_3" dir="s" state="M"/>
    <connection from="E1" to="E3" fromLane="5" toLane="4" via=":J2_0_4" dir="s" state="M"/>
    <connection from="E2" to="E1" fromLane="0" toLane="0" via=":J1_0_0" dir="s" state="M"/>
    <connection from="E3" to="E4" fromLane="0" toLane="0" via=":J6_0_0" dir="R" state="M"/>
    <connection from="E3" to="E5" fromLane="1" toLane="0" via=":J6_1_0" dir="s" state="M"/>
    <connection from="E3" to="E5" fromLane="2" toLane="1" via=":J6_1_1" dir="s" state="M"/>
    <connection from="E3" to="E5" fromLane="3" toLane="2" via=":J6_1_2" dir="s" state="M"/>
    <connection from="E3" to="E5" fromLane="4" toLane="3" via=":J6_1_3" dir="s" state="M"/>
    <connection from="E5" to="E7" fromLane="0" toLane="1" via=":J8_1_0" dir="s" state="M"/>
    <connection from="E5" to="E7" fromLane="1" toLane="2" via=":J8_1_1" dir="s" state="M"/>
    <connection from="E5" to="E7" fromLane="2" toLane="3" via=":J8_1_2" dir="s" state="M"/>
    <connection from="E5" to="E7" fromLane="3" toLane="4" via=":J8_1_3" dir="s" state="M"/>
    <connection from="E6" to="E7" fromLane="0" toLane="0" via=":J8_0_0" dir="s" state="M"/>
    <connection from="E7" to="E8" fromLane="1" toLane="0" via=":J10_0_0" dir="s" state="M"/>
    <connection from="E7" to="E8" fromLane="2" toLane="1" via=":J10_0_1" dir="s" state="M"/>
    <connection from="E7" to="E8" fromLane="3" toLane="2" via=":J10_0_2" dir="s" state="M"/>
    <connection from="E7" to="E8" fromLane="4" toLane="3" via=":J10_0_3" dir="s" state="M"/>

    <connection from=":J1_0" to="E1" fromLane="0" toLane="0" dir="s" state="M"/>
    <connection from=":J1_1" to="E1" fromLane="0" toLane="1" dir="s" state="M"/>
    <connection from=":J1_1" to="E1" fromLane="1" toLane="2" dir="s" state="M"/>
    <connection from=":J1_1" to="E1" fromLane="2" toLane="3" dir="s" state="M"/>
    <connection from=":J1_1" to="E1" fromLane="3" toLane="4" dir="s" state="M"/>
    <connection from=":J1_1" to="E1" fromLane="4" toLane="5" dir="s" state="M"/>
    <connection from=":J10_0" to="E8" fromLane="0" toLane="0" dir="s" state="M"/>
    <connection from=":J10_0" to="E8" fromLane="1" toLane="1" dir="s" state="M"/>
    <connection from=":J10_0" to="E8" fromLane="2" toLane="2" dir="s" state="M"/>
    <connection from=":J10_0" to="E8" fromLane="3" toLane="3" dir="s" state="M"/>
    <connection from=":J2_0" to="E3" fromLane="0" toLane="0" dir="s" state="M"/>
    <connection from=":J2_0" to="E3" fromLane="1" toLane="1" dir="s" state="M"/>
    <connection from=":J2_0" to="E3" fromLane="2" toLane="2" dir="s" state="M"/>
    <connection from=":J2_0" to="E3" fromLane="3" toLane="3" dir="s" state="M"/>
    <connection from=":J2_0" to="E3" fromLane="4" toLane="4" dir="s" state="M"/>
    <connection from=":J6_0" to="E4" fromLane="0" toLane="0" dir="R" state="M"/>
    <connection from=":J6_1" to="E5" fromLane="0" toLane="0" dir="s" state="M"/>
    <connection from=":J6_1" to="E5" fromLane="1" toLane="1" dir="s" state="M"/>
    <connection from=":J6_1" to="E5" fromLane="2" toLane="2" dir="s" state="M"/>
    <connection from=":J6_1" to="E5" fromLane="3" toLane="3" dir="s" state="M"/>
    <connection from=":J8_0" to="E7" fromLane="0" toLane="0" dir="s" state="M"/>
    <connection from=":J8_1" to="E7" fromLane="0" toLane="1" dir="s" state="M"/>
    <connection from=":J8_1" to="E7" fromLane="1" toLane="2" dir="s" state="M"/>
    <connection from=":J8_1" to="E7" fromLane="2" toLane="3" dir="s" state="M"/>
    <connection from=":J8_1" to="E7" fromLane="3" toLane="4" dir="s" state="M"/>

</net>
