<?xml version="1.0" encoding="UTF-8"?>

<!-- generated on 2024-07-23 13:33:33 by Eclipse SUMO netedit Version 1.19.0
<configuration xmlns:xsi="http://www.w3.org/2001/XMLSchema-instance" xsi:noNamespaceSchemaLocation="http://sumo.dlr.de/xsd/neteditConfiguration.xsd">

    <input>
        <sumo-net-file value="C:\Users\yanbing.wang\Documents\traffic\sumo\I24scenario\I24_scenario.net.xml"/>
    </input>

    <output>
        <output-file value="C:\Users\yanbing.wang\Documents\traffic\sumo\I24scenario\I24_scenario.net.xml"/>
    </output>

    <processing>
        <geometry.min-radius.fix.railways value="false"/>
        <geometry.max-grade.fix value="false"/>
        <offset.disable-normalization value="true"/>
        <lefthand value="0"/>
    </processing>

    <junctions>
        <no-turnarounds value="true"/>
        <junctions.corner-detail value="5"/>
        <junctions.limit-turn-speed value="5.50"/>
        <rectangular-lane-cut value="0"/>
    </junctions>

    <pedestrian>
        <walkingareas value="0"/>
    </pedestrian>

</configuration>
-->

<net version="1.16" junctionCornerDetail="5" limitTurnSpeed="5.50" xmlns:xsi="http://www.w3.org/2001/XMLSchema-instance" xsi:noNamespaceSchemaLocation="http://sumo.dlr.de/xsd/net_file.xsd">

    <location netOffset="0.00,0.00" convBoundary="0.00,-215.95,5729.84,5.66" origBoundary="-10000000000.00,-10000000000.00,10000000000.00,10000000000.00" projParameter="!"/>

    <edge id=":J1_0" function="internal">
        <lane id=":J1_0_0" index="0" speed="8.61" length="3.87" shape="973.77,-18.81 974.74,-18.21 975.47,-17.89 976.25,-17.76 977.39,-17.74"/>
    </edge>
    <edge id=":J1_1" function="internal">
        <lane id=":J1_1_0" index="0" speed="30.00" length="5.12" shape="973.83,-14.30 974.63,-15.68 975.48,-16.18 976.40,-15.80 977.37,-14.54"/>
        <lane id=":J1_1_1" index="1" speed="30.00" length="5.12" shape="973.83,-11.10 974.62,-12.48 975.47,-12.98 976.38,-12.59 977.35,-11.34"/>
        <lane id=":J1_1_2" index="2" speed="30.00" length="5.12" shape="973.83,-7.90 974.62,-9.27 975.46,-9.77 976.37,-9.39 977.33,-8.14"/>
        <lane id=":J1_1_3" index="3" speed="30.00" length="5.12" shape="973.83,-4.70 974.62,-6.06 975.45,-6.56 976.35,-6.18 977.31,-4.94"/>
        <lane id=":J1_1_4" index="4" speed="30.00" length="5.12" shape="973.83,-1.50 974.61,-2.86 975.45,-3.35 976.34,-2.97 977.29,-1.74"/>
    </edge>
    <edge id=":J10_0" function="internal">
        <lane id=":J10_0_0" index="0" speed="30.00" length="8.00" shape="3404.41,-6.08 3412.41,-6.08"/>
        <lane id=":J10_0_1" index="1" speed="30.00" length="8.00" shape="3404.41,-2.88 3412.41,-2.88"/>
        <lane id=":J10_0_2" index="2" speed="30.00" length="8.00" shape="3404.41,0.32 3412.41,0.32"/>
        <lane id=":J10_0_3" index="3" speed="30.00" length="8.00" shape="3404.41,3.52 3412.41,3.52"/>
    </edge>
    <edge id=":J2_0" function="internal">
        <lane id=":J2_0_0" index="0" speed="30.00" length="8.00" shape="1141.57,-13.55 1149.55,-13.52"/>
        <lane id=":J2_0_1" index="1" speed="30.00" length="8.00" shape="1141.55,-10.35 1149.54,-10.32"/>
        <lane id=":J2_0_2" index="2" speed="30.00" length="8.00" shape="1141.53,-7.15 1149.53,-7.12"/>
        <lane id=":J2_0_3" index="3" speed="30.00" length="8.00" shape="1141.51,-3.95 1149.53,-3.92"/>
        <lane id=":J2_0_4" index="4" speed="30.00" length="8.00" shape="1141.49,-0.75 1149.52,-0.72"/>
    </edge>
    <edge id=":J6_0" function="internal">
        <lane id=":J6_0_0" index="0" speed="11.92" length="3.63" shape="2481.70,-11.10 2482.78,-11.11 2483.51,-11.19 2484.22,-11.41 2485.21,-11.82"/>
    </edge>
    <edge id=":J6_1" function="internal">
        <lane id=":J6_1_0" index="0" speed="30.00" length="3.56" shape="2481.70,-7.90 2485.27,-7.85"/>
        <lane id=":J6_1_1" index="1" speed="30.00" length="3.56" shape="2481.69,-4.70 2485.26,-4.65"/>
        <lane id=":J6_1_2" index="2" speed="30.00" length="3.56" shape="2481.68,-1.50 2485.25,-1.45"/>
        <lane id=":J6_1_3" index="3" speed="30.00" length="3.56" shape="2481.68,1.70 2485.24,1.75"/>
    </edge>
    <edge id=":J8_0" function="internal">
        <lane id=":J8_0_0" index="0" speed="7.94" length="3.96" shape="2990.54,-10.62 2991.49,-9.96 2992.23,-9.60 2993.03,-9.45 2994.20,-9.43"/>
    </edge>
    <edge id=":J8_1" function="internal">
        <lane id=":J8_1_0" index="0" speed="30.00" length="4.13" shape="2990.08,-6.28 2994.19,-6.23"/>
        <lane id=":J8_1_1" index="1" speed="30.00" length="4.13" shape="2990.07,-3.08 2994.19,-3.03"/>
        <lane id=":J8_1_2" index="2" speed="30.00" length="4.13" shape="2990.06,0.12 2994.19,0.17"/>
        <lane id=":J8_1_3" index="3" speed="30.00" length="4.13" shape="2990.05,3.32 2994.19,3.37"/>
    </edge>

    <edge id="E0" from="J0" to="J1" priority="-1" shape="0.00,0.10 1000.10,0.10">
        <lane id="E0_0" index="0" speed="30.00" length="973.83" shape="0.00,-14.30 973.83,-14.30"/>
        <lane id="E0_1" index="1" speed="30.00" length="973.83" shape="0.00,-11.10 973.83,-11.10"/>
        <lane id="E0_2" index="2" speed="30.00" length="973.83" shape="0.00,-7.90 973.83,-7.90"/>
        <lane id="E0_3" index="3" speed="30.00" length="973.83" shape="0.00,-4.70 973.83,-4.70"/>
        <lane id="E0_4" index="4" speed="30.00" length="973.83" shape="0.00,-1.50 973.83,-1.50"/>
    </edge>
    <edge id="E1" from="J1" to="J2" priority="-1" shape="1000.00,0.00 113.47,0.00 132.62,0.15 1145.50,0.87">
        <lane id="E1_0" index="0" speed="30.00" length="164.20" acceleration="1" shape="977.39,-17.74 1141.59,-16.75"/>
        <lane id="E1_1" index="1" speed="30.00" length="164.20" shape="977.37,-14.54 1141.57,-13.55"/>
        <lane id="E1_2" index="2" speed="30.00" length="164.20" shape="977.35,-11.34 1141.55,-10.35"/>
        <lane id="E1_3" index="3" speed="30.00" length="164.20" shape="977.33,-8.14 1141.53,-7.15"/>
        <lane id="E1_4" index="4" speed="30.00" length="164.20" shape="977.31,-4.94 1141.51,-3.95"/>
        <lane id="E1_5" index="5" speed="30.00" length="164.20" shape="977.29,-1.74 1141.49,-0.75"/>
    </edge>
    <edge id="E2" from="J5" to="J1" priority="-1">
        <lane id="E2_0" index="0" speed="30.00" length="348.49" shape="680.87,-207.62 973.77,-18.81"/>
    </edge>
    <edge id="E3" from="J2" to="J6" priority="-1">
        <lane id="E3_0" index="0" speed="30.00" length="1332.16" shape="1149.55,-13.52 2481.70,-11.10"/>
        <lane id="E3_1" index="1" speed="30.00" length="1332.16" shape="1149.54,-10.32 2481.70,-7.90"/>
        <lane id="E3_2" index="2" speed="30.00" length="1332.16" shape="1149.53,-7.12 2481.69,-4.70"/>
        <lane id="E3_3" index="3" speed="30.00" length="1332.16" shape="1149.53,-3.92 2481.68,-1.50"/>
        <lane id="E3_4" index="4" speed="30.00" length="1332.16" shape="1149.52,-0.72 2481.68,1.70"/>
    </edge>
    <edge id="E4" from="J6" to="J7" priority="-1">
        <lane id="E4_0" index="0" speed="30.00" length="235.11" shape="2485.21,-11.82 2701.30,-104.46"/>
    </edge>
    <edge id="E5" from="J6" to="J8" priority="-1">
        <lane id="E5_0" index="0" speed="30.00" length="504.81" shape="2485.27,-7.85 2990.08,-6.28"/>
        <lane id="E5_1" index="1" speed="30.00" length="504.81" shape="2485.26,-4.65 2990.07,-3.08"/>
        <lane id="E5_2" index="2" speed="30.00" length="504.81" shape="2485.25,-1.45 2990.06,0.12"/>
        <lane id="E5_3" index="3" speed="30.00" length="504.81" shape="2485.24,1.75 2990.05,3.32"/>
    </edge>
    <edge id="E6" from="J9" to="J8" priority="-1">
        <lane id="E6_0" index="0" speed="30.00" length="349.00" shape="2709.27,-217.24 2990.54,-10.62"/>
    </edge>
    <edge id="E7" from="J8" to="J10" priority="-1">
        <lane id="E7_0" index="0" speed="30.00" length="410.22" acceleration="1" shape="2994.20,-9.43 3404.41,-9.28"/>
        <lane id="E7_1" index="1" speed="30.00" length="410.22" shape="2994.19,-6.23 3404.41,-6.08"/>
        <lane id="E7_2" index="2" speed="30.00" length="410.22" shape="2994.19,-3.03 3404.41,-2.88"/>
        <lane id="E7_3" index="3" speed="30.00" length="410.22" shape="2994.19,0.17 3404.41,0.32"/>
        <lane id="E7_4" index="4" speed="30.00" length="410.22" shape="2994.19,3.37 3404.41,3.52"/>
    </edge>
    <edge id="E8" from="J10" to="J11" priority="-1">
        <lane id="E8_0" index="0" speed="30.00" length="2317.43" shape="3412.41,-6.08 5729.84,-5.54"/>
        <lane id="E8_1" index="1" speed="30.00" length="2317.43" shape="3412.41,-2.88 5729.84,-2.34"/>
        <lane id="E8_2" index="2" speed="30.00" length="2317.43" shape="3412.41,0.32 5729.84,0.86"/>
        <lane id="E8_3" index="3" speed="30.00" length="2317.43" shape="3412.41,3.52 5729.84,4.06"/>
    </edge>

    <junction id="J0" type="dead_end" x="0.00" y="0.10" incLanes="" intLanes="" shape="0.00,0.10 0.00,-15.90"/>
    <junction id="J1" type="priority" x="1000.00" y="0.00" incLanes="E2_0 E0_0 E0_1 E0_2 E0_3 E0_4" intLanes=":J1_0_0 :J1_1_0 :J1_1_1 :J1_1_2 :J1_1_3 :J1_1_4" shape="974.64,-20.16 972.90,-17.47 974.09,-16.60 974.35,-16.29 974.40,-16.07 974.23,-15.94 973.83,-15.90 973.83,0.10 977.28,-0.14 977.40,-19.34 976.31,-19.38 975.93,-19.46 975.57,-19.60 975.16,-19.83">
        <request index="0" response="000000" foes="000000" cont="0"/>
        <request index="1" response="000000" foes="000000" cont="0"/>
        <request index="2" response="000000" foes="000000" cont="0"/>
        <request index="3" response="000000" foes="000000" cont="0"/>
        <request index="4" response="000000" foes="000000" cont="0"/>
        <request index="5" response="000000" foes="000000" cont="0"/>
    </junction>
    <junction id="J10" type="priority" x="3408.41" y="5.12" incLanes="E7_0 E7_1 E7_2 E7_3 E7_4" intLanes=":J10_0_0 :J10_0_1 :J10_0_2 :J10_0_3" shape="3412.41,5.12 3412.41,-7.68 3409.38,-8.51 3407.45,-10.05 3406.20,-10.64 3404.42,-10.88 3404.41,5.12">
        <request index="0" response="0000" foes="0000" cont="0"/>
        <request index="1" response="0000" foes="0000" cont="0"/>
        <request index="2" response="0000" foes="0000" cont="0"/>
        <request index="3" response="0000" foes="0000" cont="0"/>
    </junction>
    <junction id="J11" type="dead_end" x="5729.84" y="5.66" incLanes="E8_0 E8_1 E8_2 E8_3" intLanes="" shape="5729.84,-7.14 5729.84,5.66"/>
    <junction id="J2" type="priority" x="1145.50" y="0.87" incLanes="E1_0 E1_1 E1_2 E1_3 E1_4 E1_5" intLanes=":J2_0_0 :J2_0_1 :J2_0_2 :J2_0_3 :J2_0_4" shape="1149.52,0.88 1149.55,-15.12 1146.53,-15.96 1144.61,-17.51 1143.38,-18.11 1141.60,-18.35 1141.48,0.85">
        <request index="0" response="00000" foes="00000" cont="0"/>
        <request index="1" response="00000" foes="00000" cont="0"/>
        <request index="2" response="00000" foes="00000" cont="0"/>
        <request index="3" response="00000" foes="00000" cont="0"/>
        <request index="4" response="00000" foes="00000" cont="0"/>
    </junction>
    <junction id="J5" type="dead_end" x="680.00" y="-206.28" incLanes="" intLanes="" shape="680.00,-206.28 681.73,-208.97"/>
    <junction id="J6" type="priority" x="2454.13" y="3.25" incLanes="E3_0 E3_1 E3_2 E3_3 E3_4" intLanes=":J6_0_0 :J6_1_0 :J6_1_1 :J6_1_2 :J6_1_3" shape="2485.23,3.35 2485.27,-9.45 2484.67,-9.55 2484.66,-9.68 2484.86,-9.85 2485.25,-10.08 2485.84,-10.35 2484.58,-13.29 2483.56,-12.88 2483.19,-12.78 2482.80,-12.72 2482.33,-12.70 2481.71,-12.70 2481.68,3.30">
        <request index="0" response="00000" foes="00000" cont="0"/>
        <request index="1" response="00000" foes="00000" cont="0"/>
        <request index="2" response="00000" foes="00000" cont="0"/>
        <request index="3" response="00000" foes="00000" cont="0"/>
        <request index="4" response="00000" foes="00000" cont="0"/>
    </junction>
    <junction id="J7" type="dead_end" x="2701.93" y="-102.99" incLanes="E4_0" intLanes="" shape="2700.67,-105.93 2701.93,-102.99"/>
    <junction id="J8" type="priority" x="3009.08" y="4.98" incLanes="E6_0 E5_0 E5_1 E5_2 E5_3" intLanes=":J8_0_0 :J8_1_0 :J8_1_1 :J8_1_2 :J8_1_3" shape="2994.19,4.97 2994.20,-11.03 2993.12,-11.07 2992.74,-11.15 2992.38,-11.31 2991.99,-11.55 2991.49,-11.91 2989.59,-9.33 2990.53,-8.52 2990.71,-8.24 2990.69,-8.04 2990.48,-7.92 2990.08,-7.88 2990.04,4.92">
        <request index="0" response="00000" foes="00000" cont="0"/>
        <request index="1" response="00000" foes="00000" cont="0"/>
        <request index="2" response="00000" foes="00000" cont="0"/>
        <request index="3" response="00000" foes="00000" cont="0"/>
        <request index="4" response="00000" foes="00000" cont="0"/>
    </junction>
    <junction id="J9" type="dead_end" x="2708.32" y="-215.95" incLanes="" intLanes="" shape="2708.32,-215.95 2710.21,-218.53"/>

    <connection from="E0" to="E1" fromLane="0" toLane="1" via=":J1_1_0" dir="t" state="M"/>
    <connection from="E0" to="E1" fromLane="1" toLane="2" via=":J1_1_1" dir="t" state="M"/>
    <connection from="E0" to="E1" fromLane="2" toLane="3" via=":J1_1_2" dir="t" state="M"/>
    <connection from="E0" to="E1" fromLane="3" toLane="4" via=":J1_1_3" dir="t" state="M"/>
    <connection from="E0" to="E1" fromLane="4" toLane="5" via=":J1_1_4" dir="t" state="M"/>
    <connection from="E1" to="E3" fromLane="1" toLane="0" via=":J2_0_0" dir="s" state="M"/>
    <connection from="E1" to="E3" fromLane="2" toLane="1" via=":J2_0_1" dir="s" state="M"/>
    <connection from="E1" to="E3" fromLane="3" toLane="2" via=":J2_0_2" dir="s" state="M"/>
    <connection from="E1" to="E3" fromLane="4" toLane="3" via=":J2_0_3" dir="s" state="M"/>
    <connection from="E1" to="E3" fromLane="5" toLane="4" via=":J2_0_4" dir="s" state="M"/>
    <connection from="E2" to="E1" fromLane="0" toLane="0" via=":J1_0_0" dir="l" state="M"/>
    <connection from="E3" to="E4" fromLane="0" toLane="0" via=":J6_0_0" dir="R" state="M"/>
    <connection from="E3" to="E5" fromLane="1" toLane="0" via=":J6_1_0" dir="s" state="M"/>
    <connection from="E3" to="E5" fromLane="2" toLane="1" via=":J6_1_1" dir="s" state="M"/>
    <connection from="E3" to="E5" fromLane="3" toLane="2" via=":J6_1_2" dir="s" state="M"/>
    <connection from="E3" to="E5" fromLane="4" toLane="3" via=":J6_1_3" dir="s" state="M"/>
    <connection from="E5" to="E7" fromLane="0" toLane="1" via=":J8_1_0" dir="s" state="M"/>
    <connection from="E5" to="E7" fromLane="1" toLane="2" via=":J8_1_1" dir="s" state="M"/>
    <connection from="E5" to="E7" fromLane="2" toLane="3" via=":J8_1_2" dir="s" state="M"/>
    <connection from="E5" to="E7" fromLane="3" toLane="4" via=":J8_1_3" dir="s" state="M"/>
    <connection from="E6" to="E7" fromLane="0" toLane="0" via=":J8_0_0" dir="s" state="M"/>
    <connection from="E7" to="E8" fromLane="1" toLane="0" via=":J10_0_0" dir="s" state="M"/>
    <connection from="E7" to="E8" fromLane="2" toLane="1" via=":J10_0_1" dir="s" state="M"/>
    <connection from="E7" to="E8" fromLane="3" toLane="2" via=":J10_0_2" dir="s" state="M"/>
    <connection from="E7" to="E8" fromLane="4" toLane="3" via=":J10_0_3" dir="s" state="M"/>

    <connection from=":J1_0" to="E1" fromLane="0" toLane="0" dir="l" state="M"/>
    <connection from=":J1_1" to="E1" fromLane="0" toLane="1" dir="t" state="M"/>
    <connection from=":J1_1" to="E1" fromLane="1" toLane="2" dir="t" state="M"/>
    <connection from=":J1_1" to="E1" fromLane="2" toLane="3" dir="t" state="M"/>
    <connection from=":J1_1" to="E1" fromLane="3" toLane="4" dir="t" state="M"/>
    <connection from=":J1_1" to="E1" fromLane="4" toLane="5" dir="t" state="M"/>
    <connection from=":J10_0" to="E8" fromLane="0" toLane="0" dir="s" state="M"/>
    <connection from=":J10_0" to="E8" fromLane="1" toLane="1" dir="s" state="M"/>
    <connection from=":J10_0" to="E8" fromLane="2" toLane="2" dir="s" state="M"/>
    <connection from=":J10_0" to="E8" fromLane="3" toLane="3" dir="s" state="M"/>
    <connection from=":J2_0" to="E3" fromLane="0" toLane="0" dir="s" state="M"/>
    <connection from=":J2_0" to="E3" fromLane="1" toLane="1" dir="s" state="M"/>
    <connection from=":J2_0" to="E3" fromLane="2" toLane="2" dir="s" state="M"/>
    <connection from=":J2_0" to="E3" fromLane="3" toLane="3" dir="s" state="M"/>
    <connection from=":J2_0" to="E3" fromLane="4" toLane="4" dir="s" state="M"/>
    <connection from=":J6_0" to="E4" fromLane="0" toLane="0" dir="R" state="M"/>
    <connection from=":J6_1" to="E5" fromLane="0" toLane="0" dir="s" state="M"/>
    <connection from=":J6_1" to="E5" fromLane="1" toLane="1" dir="s" state="M"/>
    <connection from=":J6_1" to="E5" fromLane="2" toLane="2" dir="s" state="M"/>
    <connection from=":J6_1" to="E5" fromLane="3" toLane="3" dir="s" state="M"/>
    <connection from=":J8_0" to="E7" fromLane="0" toLane="0" dir="s" state="M"/>
    <connection from=":J8_1" to="E7" fromLane="0" toLane="1" dir="s" state="M"/>
    <connection from=":J8_1" to="E7" fromLane="1" toLane="2" dir="s" state="M"/>
    <connection from=":J8_1" to="E7" fromLane="2" toLane="3" dir="s" state="M"/>
    <connection from=":J8_1" to="E7" fromLane="3" toLane="4" dir="s" state="M"/>

</net>
